
Note: No compatibility mode selected!


Circuit: * basic boost converter (clean demo)

Doing analysis at TEMP = 27.000000 and TNOM = 27.000000

Using SPARSE 1.3 as Direct Linear Solver

Initial Transient Solution
--------------------------

Node                                   Voltage
----                                   -------
in                                          30
in2                                    29.9411
sw                                     29.9411
ctrl                                         0
out                                    29.4389
l1#branch                             0.588809
vgate#branch                                 0
vpv#branch                           -0.588809


No. of Data Rows : 72572
                      * basic boost converter (clean demo)
                      Transient Analysis  Wed Oct  8 19:49:07  2025
--------------------------------------------------------------------------------
Index   time            v(in)           v(out)          
--------------------------------------------------------------------------------
0	0.000000e+00	3.000000e+01	2.943893e+01	
1	1.000000e-11	3.000000e+01	2.943893e+01	
2	2.000000e-11	3.000000e+01	2.943893e+01	
3	4.000000e-11	3.000000e+01	2.943893e+01	
4	8.000000e-11	3.000000e+01	2.943893e+01	
5	1.600000e-10	3.000000e+01	2.943893e+01	
6	2.300000e-10	3.000000e+01	2.943893e+01	
7	2.643750e-10	3.000000e+01	2.943893e+01	
8	3.245312e-10	3.000000e+01	2.943893e+01	
9	3.411816e-10	3.000000e+01	2.943893e+01	
10	3.703198e-10	3.000000e+01	2.943893e+01	
11	4.025800e-10	3.000000e+01	2.943890e+01	
12	4.512816e-10	3.000000e+01	2.943879e+01	
13	4.863769e-10	3.000000e+01	2.943871e+01	
14	5.251064e-10	3.000000e+01	2.943867e+01	
15	5.501631e-10	3.000000e+01	2.943868e+01	
16	5.714820e-10	3.000000e+01	2.943867e+01	
17	5.920576e-10	3.000000e+01	2.943868e+01	
18	6.264348e-10	3.000000e+01	2.943867e+01	
19	6.647973e-10	3.000000e+01	2.943868e+01	
20	7.206475e-10	3.000000e+01	2.943867e+01	
21	8.086608e-10	3.000000e+01	2.943867e+01	
22	9.507525e-10	3.000000e+01	2.943867e+01	
23	1.000000e-09	3.000000e+01	2.943867e+01	
24	1.027526e-09	3.000000e+01	2.943867e+01	
25	1.066722e-09	3.000000e+01	2.943867e+01	
26	1.108871e-09	3.000000e+01	2.943867e+01	
27	1.177372e-09	3.000000e+01	2.943867e+01	
28	1.314373e-09	3.000000e+01	2.943867e+01	
29	1.588375e-09	3.000000e+01	2.943867e+01	
30	2.136380e-09	3.000000e+01	2.943867e+01	
31	3.232390e-09	3.000000e+01	2.943867e+01	
32	5.424409e-09	3.000000e+01	2.943866e+01	
33	9.808447e-09	3.000000e+01	2.943865e+01	
34	1.857652e-08	3.000000e+01	2.943863e+01	
35	3.611268e-08	3.000000e+01	2.943858e+01	
36	7.118498e-08	3.000000e+01	2.943849e+01	
37	1.413296e-07	3.000000e+01	2.943830e+01	
38	2.413296e-07	3.000000e+01	2.943803e+01	
39	3.413296e-07	3.000000e+01	2.943776e+01	
40	4.413296e-07	3.000000e+01	2.943750e+01	
41	5.413296e-07	3.000000e+01	2.943723e+01	
42	6.413296e-07	3.000000e+01	2.943696e+01	
43	7.413296e-07	3.000000e+01	2.943669e+01	
44	8.413296e-07	3.000000e+01	2.943643e+01	
45	9.413296e-07	3.000000e+01	2.943616e+01	
46	1.041330e-06	3.000000e+01	2.943589e+01	
47	1.141330e-06	3.000000e+01	2.943562e+01	
48	1.241330e-06	3.000000e+01	2.943535e+01	
49	1.341330e-06	3.000000e+01	2.943509e+01	
50	1.441330e-06	3.000000e+01	2.943482e+01	
51	1.541330e-06	3.000000e+01	2.943455e+01	
52	1.641330e-06	3.000000e+01	2.943428e+01	
53	1.741330e-06	3.000000e+01	2.943402e+01	
54	1.841330e-06	3.000000e+01	2.943375e+01	

Index   time            v(in)           v(out)          
--------------------------------------------------------------------------------
55	1.941330e-06	3.000000e+01	2.943348e+01	
56	2.041330e-06	3.000000e+01	2.943321e+01	
57	2.141330e-06	3.000000e+01	2.943295e+01	
58	2.241330e-06	3.000000e+01	2.943268e+01	
59	2.341330e-06	3.000000e+01	2.943241e+01	
60	2.441330e-06	3.000000e+01	2.943214e+01	
61	2.541330e-06	3.000000e+01	2.943188e+01	
62	2.641330e-06	3.000000e+01	2.943161e+01	
63	2.741330e-06	3.000000e+01	2.943134e+01	
64	2.841330e-06	3.000000e+01	2.943107e+01	
65	2.941330e-06	3.000000e+01	2.943081e+01	
66	3.041330e-06	3.000000e+01	2.943054e+01	
67	3.141330e-06	3.000000e+01	2.943027e+01	
68	3.241330e-06	3.000000e+01	2.943000e+01	
69	3.341330e-06	3.000000e+01	2.942974e+01	
70	3.441330e-06	3.000000e+01	2.942947e+01	
71	3.541330e-06	3.000000e+01	2.942920e+01	
72	3.641330e-06	3.000000e+01	2.942893e+01	
73	3.741330e-06	3.000000e+01	2.942867e+01	
74	3.841330e-06	3.000000e+01	2.942840e+01	
75	3.941330e-06	3.000000e+01	2.942813e+01	
76	4.041330e-06	3.000000e+01	2.942786e+01	
77	4.141330e-06	3.000000e+01	2.942760e+01	
78	4.241330e-06	3.000000e+01	2.942733e+01	
79	4.341330e-06	3.000000e+01	2.942706e+01	
80	4.441330e-06	3.000000e+01	2.942679e+01	
81	4.541330e-06	3.000000e+01	2.942653e+01	
82	4.641330e-06	3.000000e+01	2.942626e+01	
83	4.741330e-06	3.000000e+01	2.942599e+01	
84	4.841330e-06	3.000000e+01	2.942572e+01	
85	4.941330e-06	3.000000e+01	2.942546e+01	
86	5.041330e-06	3.000000e+01	2.942519e+01	
87	5.141330e-06	3.000000e+01	2.942492e+01	
88	5.241330e-06	3.000000e+01	2.942465e+01	
89	5.341330e-06	3.000000e+01	2.942439e+01	
90	5.441330e-06	3.000000e+01	2.942412e+01	
91	5.541330e-06	3.000000e+01	2.942385e+01	
92	5.641330e-06	3.000000e+01	2.942358e+01	
93	5.741330e-06	3.000000e+01	2.942332e+01	
94	5.841330e-06	3.000000e+01	2.942305e+01	
95	5.941330e-06	3.000000e+01	2.942278e+01	
96	6.001000e-06	3.000000e+01	2.942262e+01	
97	6.001100e-06	3.000000e+01	2.942262e+01	
98	6.001300e-06	3.000000e+01	2.942262e+01	
99	6.001359e-06	3.000000e+01	2.942262e+01	
100	6.001462e-06	3.000000e+01	2.942262e+01	
101	6.001490e-06	3.000000e+01	2.942262e+01	
102	6.001540e-06	3.000000e+01	2.942262e+01	
103	6.001554e-06	3.000000e+01	2.942262e+01	
104	6.001578e-06	3.000000e+01	2.942262e+01	
105	6.001604e-06	3.000000e+01	2.942262e+01	
106	6.001658e-06	3.000000e+01	2.942262e+01	
107	6.001733e-06	3.000000e+01	2.942262e+01	
108	6.001814e-06	3.000000e+01	2.942262e+01	
109	6.001977e-06	3.000000e+01	2.942262e+01	
110	6.002000e-06	3.000000e+01	2.942262e+01	
111	6.002001e-06	3.000000e+01	2.942262e+01	
112	6.002003e-06	3.000000e+01	2.942262e+01	

Index   time            v(in)           v(out)          
--------------------------------------------------------------------------------
113	6.002007e-06	3.000000e+01	2.942262e+01	
114	6.002015e-06	3.000000e+01	2.942262e+01	
115	6.002026e-06	3.000000e+01	2.942262e+01	
116	6.002049e-06	3.000000e+01	2.942262e+01	
117	6.002094e-06	3.000000e+01	2.942262e+01	
118	6.002185e-06	3.000000e+01	2.942262e+01	
119	6.002367e-06	3.000000e+01	2.942262e+01	
120	6.002729e-06	3.000000e+01	2.942262e+01	
121	6.003455e-06	3.000000e+01	2.942263e+01	
122	6.004905e-06	3.000000e+01	2.942263e+01	
123	6.007807e-06	3.000000e+01	2.942264e+01	
124	6.013609e-06	3.000000e+01	2.942267e+01	
125	6.025215e-06	3.000000e+01	2.942272e+01	
126	6.048427e-06	3.000000e+01	2.942281e+01	
127	6.094849e-06	3.000000e+01	2.942300e+01	
128	6.187695e-06	3.000000e+01	2.942338e+01	
129	6.287695e-06	3.000000e+01	2.942379e+01	
130	6.387695e-06	3.000000e+01	2.942419e+01	
131	6.487695e-06	3.000000e+01	2.942460e+01	
132	6.578159e-06	3.000000e+01	2.942497e+01	
133	6.678159e-06	3.000000e+01	2.942538e+01	
134	6.778159e-06	3.000000e+01	2.942578e+01	
135	6.878159e-06	3.000000e+01	2.942619e+01	
136	6.978159e-06	3.000000e+01	2.942660e+01	
137	7.078159e-06	3.000000e+01	2.942701e+01	
138	7.178159e-06	3.000000e+01	2.942741e+01	
139	7.278159e-06	3.000000e+01	2.942782e+01	
140	7.378159e-06	3.000000e+01	2.942823e+01	
141	7.478159e-06	3.000000e+01	2.942864e+01	
142	7.578159e-06	3.000000e+01	2.942904e+01	
143	7.678159e-06	3.000000e+01	2.942945e+01	
144	7.778159e-06	3.000000e+01	2.942986e+01	
145	7.878159e-06	3.000000e+01	2.943027e+01	
146	7.978159e-06	3.000000e+01	2.943067e+01	
147	8.078159e-06	3.000000e+01	2.943108e+01	
148	8.178159e-06	3.000000e+01	2.943149e+01	
149	8.278159e-06	3.000000e+01	2.943189e+01	
150	8.378159e-06	3.000000e+01	2.943230e+01	
151	8.478159e-06	3.000000e+01	2.943271e+01	
152	8.578159e-06	3.000000e+01	2.943311e+01	
153	8.678159e-06	3.000000e+01	2.943352e+01	
154	8.778159e-06	3.000000e+01	2.943393e+01	
155	8.878159e-06	3.000000e+01	2.943433e+01	
156	8.978159e-06	3.000000e+01	2.943474e+01	
157	9.078159e-06	3.000000e+01	2.943515e+01	
158	9.178159e-06	3.000000e+01	2.943555e+01	
159	9.278159e-06	3.000000e+01	2.943596e+01	
160	9.378159e-06	3.000000e+01	2.943637e+01	
161	9.478159e-06	3.000000e+01	2.943677e+01	
162	9.578159e-06	3.000000e+01	2.943718e+01	
163	9.678159e-06	3.000000e+01	2.943759e+01	
164	9.778159e-06	3.000000e+01	2.943799e+01	
165	9.878159e-06	3.000000e+01	2.943840e+01	
166	9.978159e-06	3.000000e+01	2.943881e+01	
167	1.007816e-05	3.000000e+01	2.943921e+01	
168	1.017816e-05	3.000000e+01	2.943962e+01	
169	1.027816e-05	3.000000e+01	2.944003e+01	
170	1.037816e-05	3.000000e+01	2.944043e+01	

Index   time            v(in)           v(out)          
--------------------------------------------------------------------------------
171	1.047816e-05	3.000000e+01	2.944084e+01	
172	1.057816e-05	3.000000e+01	2.944124e+01	
173	1.067816e-05	3.000000e+01	2.944165e+01	
174	1.077816e-05	3.000000e+01	2.944206e+01	
175	1.087816e-05	3.000000e+01	2.944246e+01	
176	1.097816e-05	3.000000e+01	2.944287e+01	
177	1.107816e-05	3.000000e+01	2.944327e+01	
178	1.117816e-05	3.000000e+01	2.944368e+01	
179	1.127816e-05	3.000000e+01	2.944409e+01	
180	1.137816e-05	3.000000e+01	2.944449e+01	
181	1.147816e-05	3.000000e+01	2.944490e+01	
182	1.157816e-05	3.000000e+01	2.944530e+01	
183	1.167816e-05	3.000000e+01	2.944571e+01	
184	1.177816e-05	3.000000e+01	2.944611e+01	
185	1.187816e-05	3.000000e+01	2.944652e+01	
186	1.197816e-05	3.000000e+01	2.944693e+01	
187	1.207816e-05	3.000000e+01	2.944733e+01	
188	1.217816e-05	3.000000e+01	2.944774e+01	
189	1.227816e-05	3.000000e+01	2.944814e+01	
190	1.237816e-05	3.000000e+01	2.944855e+01	
191	1.247816e-05	3.000000e+01	2.944895e+01	
192	1.257816e-05	3.000000e+01	2.944936e+01	
193	1.267816e-05	3.000000e+01	2.944976e+01	
194	1.277816e-05	3.000000e+01	2.945017e+01	
195	1.287816e-05	3.000000e+01	2.945057e+01	
196	1.297816e-05	3.000000e+01	2.945098e+01	
197	1.307816e-05	3.000000e+01	2.945138e+01	
198	1.317816e-05	3.000000e+01	2.945179e+01	
199	1.327816e-05	3.000000e+01	2.945220e+01	
200	1.337816e-05	3.000000e+01	2.945260e+01	
201	1.347816e-05	3.000000e+01	2.945301e+01	
202	1.357816e-05	3.000000e+01	2.945341e+01	
203	1.367816e-05	3.000000e+01	2.945382e+01	
204	1.377816e-05	3.000000e+01	2.945422e+01	
205	1.387816e-05	3.000000e+01	2.945462e+01	
206	1.397816e-05	3.000000e+01	2.945503e+01	
207	1.407816e-05	3.000000e+01	2.945543e+01	
208	1.417816e-05	3.000000e+01	2.945584e+01	
209	1.427816e-05	3.000000e+01	2.945624e+01	
210	1.437816e-05	3.000000e+01	2.945665e+01	
211	1.447816e-05	3.000000e+01	2.945705e+01	
212	1.457816e-05	3.000000e+01	2.945746e+01	
213	1.467816e-05	3.000000e+01	2.945786e+01	
214	1.477816e-05	3.000000e+01	2.945827e+01	
215	1.487816e-05	3.000000e+01	2.945867e+01	
216	1.497816e-05	3.000000e+01	2.945908e+01	
217	1.507816e-05	3.000000e+01	2.945948e+01	
218	1.517816e-05	3.000000e+01	2.945988e+01	
219	1.527816e-05	3.000000e+01	2.946029e+01	
220	1.537816e-05	3.000000e+01	2.946069e+01	
221	1.547816e-05	3.000000e+01	2.946110e+01	
222	1.557816e-05	3.000000e+01	2.946150e+01	
223	1.567816e-05	3.000000e+01	2.946190e+01	
224	1.577816e-05	3.000000e+01	2.946231e+01	
225	1.587816e-05	3.000000e+01	2.946271e+01	
226	1.597816e-05	3.000000e+01	2.946312e+01	
227	1.607816e-05	3.000000e+01	2.946352e+01	
228	1.617816e-05	3.000000e+01	2.946392e+01	

Index   time            v(in)           v(out)          
--------------------------------------------------------------------------------
229	1.627816e-05	3.000000e+01	2.946433e+01	
230	1.637816e-05	3.000000e+01	2.946473e+01	
231	1.647816e-05	3.000000e+01	2.946514e+01	
232	1.657816e-05	3.000000e+01	2.946554e+01	
233	1.667816e-05	3.000000e+01	2.946594e+01	
234	1.677816e-05	3.000000e+01	2.946635e+01	
235	1.687816e-05	3.000000e+01	2.946675e+01	
236	1.697816e-05	3.000000e+01	2.946715e+01	
237	1.707816e-05	3.000000e+01	2.946756e+01	
238	1.717816e-05	3.000000e+01	2.946796e+01	
239	1.727816e-05	3.000000e+01	2.946836e+01	
240	1.737816e-05	3.000000e+01	2.946877e+01	
241	1.747816e-05	3.000000e+01	2.946917e+01	
242	1.757816e-05	3.000000e+01	2.946957e+01	
243	1.767816e-05	3.000000e+01	2.946998e+01	
244	1.777816e-05	3.000000e+01	2.947038e+01	
245	1.787816e-05	3.000000e+01	2.947078e+01	
246	1.797816e-05	3.000000e+01	2.947119e+01	
247	1.807816e-05	3.000000e+01	2.947159e+01	
248	1.817816e-05	3.000000e+01	2.947199e+01	
249	1.827816e-05	3.000000e+01	2.947240e+01	
250	1.837816e-05	3.000000e+01	2.947280e+01	
251	1.847816e-05	3.000000e+01	2.947320e+01	
252	1.857816e-05	3.000000e+01	2.947360e+01	
253	1.867816e-05	3.000000e+01	2.947401e+01	
254	1.877816e-05	3.000000e+01	2.947441e+01	
255	1.887816e-05	3.000000e+01	2.947481e+01	
256	1.897816e-05	3.000000e+01	2.947522e+01	
257	1.907816e-05	3.000000e+01	2.947562e+01	
258	1.917816e-05	3.000000e+01	2.947602e+01	
259	1.927816e-05	3.000000e+01	2.947642e+01	
260	1.937816e-05	3.000000e+01	2.947683e+01	
261	1.947816e-05	3.000000e+01	2.947723e+01	
262	1.957816e-05	3.000000e+01	2.947763e+01	
263	1.967816e-05	3.000000e+01	2.947803e+01	
264	1.977816e-05	3.000000e+01	2.947844e+01	
265	1.987816e-05	3.000000e+01	2.947884e+01	
266	1.997816e-05	3.000000e+01	2.947924e+01	
267	2.000000e-05	3.000000e+01	2.947933e+01	
268	2.000010e-05	3.000000e+01	2.947933e+01	
269	2.000018e-05	3.000000e+01	2.947933e+01	
270	2.000023e-05	3.000000e+01	2.947933e+01	
271	2.000030e-05	3.000000e+01	2.947933e+01	
272	2.000032e-05	3.000000e+01	2.947933e+01	
273	2.000036e-05	3.000000e+01	2.947933e+01	
274	2.000037e-05	3.000000e+01	2.947933e+01	
275	2.000039e-05	3.000000e+01	2.947933e+01	
276	2.000041e-05	3.000000e+01	2.947931e+01	
277	2.000045e-05	3.000000e+01	2.947922e+01	
278	2.000049e-05	3.000000e+01	2.947912e+01	
279	2.000054e-05	3.000000e+01	2.947900e+01	
280	2.000059e-05	3.000000e+01	2.947895e+01	
281	2.000060e-05	3.000000e+01	2.947895e+01	
282	2.000061e-05	3.000000e+01	2.947895e+01	
283	2.000062e-05	3.000000e+01	2.947895e+01	
284	2.000064e-05	3.000000e+01	2.947895e+01	
285	2.000067e-05	3.000000e+01	2.947895e+01	
286	2.000072e-05	3.000000e+01	2.947895e+01	

Index   time            v(in)           v(out)          
--------------------------------------------------------------------------------
287	2.000080e-05	3.000000e+01	2.947895e+01	
288	2.000093e-05	3.000000e+01	2.947895e+01	
289	2.000100e-05	3.000000e+01	2.947895e+01	
290	2.000102e-05	3.000000e+01	2.947895e+01	
291	2.000107e-05	3.000000e+01	2.947895e+01	
292	2.000117e-05	3.000000e+01	2.947895e+01	
293	2.000136e-05	3.000000e+01	2.947895e+01	
294	2.000174e-05	3.000000e+01	2.947895e+01	
295	2.000250e-05	3.000000e+01	2.947894e+01	
296	2.000403e-05	3.000000e+01	2.947894e+01	
297	2.000709e-05	3.000000e+01	2.947893e+01	
298	2.001320e-05	3.000000e+01	2.947892e+01	
299	2.002542e-05	3.000000e+01	2.947888e+01	
300	2.004986e-05	3.000000e+01	2.947882e+01	
301	2.009874e-05	3.000000e+01	2.947869e+01	
302	2.019651e-05	3.000000e+01	2.947842e+01	
303	2.029651e-05	3.000000e+01	2.947816e+01	
304	2.039651e-05	3.000000e+01	2.947789e+01	
305	2.049651e-05	3.000000e+01	2.947762e+01	
306	2.059651e-05	3.000000e+01	2.947735e+01	
307	2.069651e-05	3.000000e+01	2.947708e+01	
308	2.079651e-05	3.000000e+01	2.947682e+01	
309	2.089651e-05	3.000000e+01	2.947655e+01	
310	2.099651e-05	3.000000e+01	2.947628e+01	
311	2.109651e-05	3.000000e+01	2.947601e+01	
312	2.119651e-05	3.000000e+01	2.947574e+01	
313	2.129651e-05	3.000000e+01	2.947548e+01	
314	2.139651e-05	3.000000e+01	2.947521e+01	
315	2.149651e-05	3.000000e+01	2.947494e+01	
316	2.159651e-05	3.000000e+01	2.947467e+01	
317	2.169651e-05	3.000000e+01	2.947440e+01	
318	2.179651e-05	3.000000e+01	2.947414e+01	
319	2.189651e-05	3.000000e+01	2.947387e+01	
320	2.199651e-05	3.000000e+01	2.947360e+01	
321	2.209651e-05	3.000000e+01	2.947333e+01	
322	2.219651e-05	3.000000e+01	2.947306e+01	
323	2.229651e-05	3.000000e+01	2.947280e+01	
324	2.239651e-05	3.000000e+01	2.947253e+01	
325	2.249651e-05	3.000000e+01	2.947226e+01	
326	2.259651e-05	3.000000e+01	2.947199e+01	
327	2.269651e-05	3.000000e+01	2.947172e+01	
328	2.279651e-05	3.000000e+01	2.947146e+01	
329	2.289651e-05	3.000000e+01	2.947119e+01	
330	2.299651e-05	3.000000e+01	2.947092e+01	
331	2.309651e-05	3.000000e+01	2.947065e+01	
332	2.319651e-05	3.000000e+01	2.947039e+01	
333	2.329651e-05	3.000000e+01	2.947012e+01	
334	2.339651e-05	3.000000e+01	2.946985e+01	
335	2.349651e-05	3.000000e+01	2.946958e+01	
336	2.359651e-05	3.000000e+01	2.946931e+01	
337	2.369651e-05	3.000000e+01	2.946905e+01	
338	2.379651e-05	3.000000e+01	2.946878e+01	
339	2.389651e-05	3.000000e+01	2.946851e+01	
340	2.399651e-05	3.000000e+01	2.946824e+01	
341	2.409651e-05	3.000000e+01	2.946797e+01	
342	2.419651e-05	3.000000e+01	2.946771e+01	
343	2.429651e-05	3.000000e+01	2.946744e+01	
344	2.439651e-05	3.000000e+01	2.946717e+01	

Index   time            v(in)           v(out)          
--------------------------------------------------------------------------------
345	2.449651e-05	3.000000e+01	2.946690e+01	
346	2.459651e-05	3.000000e+01	2.946663e+01	
347	2.469651e-05	3.000000e+01	2.946637e+01	
348	2.479651e-05	3.000000e+01	2.946610e+01	
349	2.489651e-05	3.000000e+01	2.946583e+01	
350	2.499651e-05	3.000000e+01	2.946556e+01	
351	2.509651e-05	3.000000e+01	2.946530e+01	
352	2.519651e-05	3.000000e+01	2.946503e+01	
353	2.529651e-05	3.000000e+01	2.946476e+01	
354	2.539651e-05	3.000000e+01	2.946449e+01	
355	2.549651e-05	3.000000e+01	2.946422e+01	
356	2.559651e-05	3.000000e+01	2.946396e+01	
357	2.569651e-05	3.000000e+01	2.946369e+01	
358	2.579651e-05	3.000000e+01	2.946342e+01	
359	2.589651e-05	3.000000e+01	2.946315e+01	
360	2.599651e-05	3.000000e+01	2.946288e+01	
361	2.600100e-05	3.000000e+01	2.946287e+01	
362	2.600110e-05	3.000000e+01	2.946287e+01	
363	2.600130e-05	3.000000e+01	2.946287e+01	
364	2.600136e-05	3.000000e+01	2.946287e+01	
365	2.600146e-05	3.000000e+01	2.946287e+01	
366	2.600149e-05	3.000000e+01	2.946287e+01	
367	2.600154e-05	3.000000e+01	2.946287e+01	
368	2.600155e-05	3.000000e+01	2.946287e+01	
369	2.600158e-05	3.000000e+01	2.946287e+01	
370	2.600160e-05	3.000000e+01	2.946287e+01	
371	2.600166e-05	3.000000e+01	2.946287e+01	
372	2.600171e-05	3.000000e+01	2.946287e+01	
373	2.600178e-05	3.000000e+01	2.946287e+01	
374	2.600191e-05	3.000000e+01	2.946287e+01	
375	2.600200e-05	3.000000e+01	2.946287e+01	
376	2.600202e-05	3.000000e+01	2.946287e+01	
377	2.600205e-05	3.000000e+01	2.946287e+01	
378	2.600211e-05	3.000000e+01	2.946288e+01	
379	2.600217e-05	3.000000e+01	2.946288e+01	
380	2.600225e-05	3.000000e+01	2.946288e+01	
381	2.600242e-05	3.000000e+01	2.946288e+01	
382	2.600266e-05	3.000000e+01	2.946288e+01	
383	2.600315e-05	3.000000e+01	2.946288e+01	
384	2.600412e-05	3.000000e+01	2.946289e+01	
385	2.600607e-05	3.000000e+01	2.946291e+01	
386	2.600996e-05	3.000000e+01	2.946294e+01	
387	2.601773e-05	3.000000e+01	2.946300e+01	
388	2.603329e-05	3.000000e+01	2.946313e+01	
389	2.606441e-05	3.000000e+01	2.946338e+01	
390	2.612664e-05	3.000000e+01	2.946388e+01	
391	2.622664e-05	3.000000e+01	2.946469e+01	
392	2.632664e-05	3.000000e+01	2.946550e+01	
393	2.642664e-05	3.000000e+01	2.946631e+01	
394	2.652664e-05	3.000000e+01	2.946712e+01	
395	2.662664e-05	3.000000e+01	2.946792e+01	
396	2.672664e-05	3.000000e+01	2.946873e+01	
397	2.682664e-05	3.000000e+01	2.946954e+01	
398	2.692664e-05	3.000000e+01	2.947035e+01	
399	2.702664e-05	3.000000e+01	2.947116e+01	
400	2.712664e-05	3.000000e+01	2.947196e+01	
401	2.722664e-05	3.000000e+01	2.947277e+01	
402	2.732664e-05	3.000000e+01	2.947358e+01	

Index   time            v(in)           v(out)          
--------------------------------------------------------------------------------
403	2.742664e-05	3.000000e+01	2.947439e+01	
404	2.752664e-05	3.000000e+01	2.947519e+01	
405	2.762664e-05	3.000000e+01	2.947600e+01	
406	2.772664e-05	3.000000e+01	2.947681e+01	
407	2.782664e-05	3.000000e+01	2.947762e+01	
408	2.792664e-05	3.000000e+01	2.947842e+01	
409	2.802664e-05	3.000000e+01	2.947923e+01	
410	2.812664e-05	3.000000e+01	2.948004e+01	
411	2.822664e-05	3.000000e+01	2.948084e+01	
412	2.832664e-05	3.000000e+01	2.948165e+01	
413	2.842664e-05	3.000000e+01	2.948246e+01	
414	2.852664e-05	3.000000e+01	2.948326e+01	
415	2.862664e-05	3.000000e+01	2.948407e+01	
416	2.872664e-05	3.000000e+01	2.948488e+01	
417	2.882664e-05	3.000000e+01	2.948568e+01	
418	2.892664e-05	3.000000e+01	2.948649e+01	
419	2.902664e-05	3.000000e+01	2.948729e+01	
420	2.912664e-05	3.000000e+01	2.948810e+01	
421	2.922664e-05	3.000000e+01	2.948891e+01	
422	2.932664e-05	3.000000e+01	2.948971e+01	
423	2.942664e-05	3.000000e+01	2.949052e+01	
424	2.952664e-05	3.000000e+01	2.949132e+01	
425	2.962664e-05	3.000000e+01	2.949213e+01	
426	2.972664e-05	3.000000e+01	2.949294e+01	
427	2.982664e-05	3.000000e+01	2.949374e+01	
428	2.992664e-05	3.000000e+01	2.949455e+01	
429	3.002664e-05	3.000000e+01	2.949535e+01	
430	3.012664e-05	3.000000e+01	2.949616e+01	
431	3.022664e-05	3.000000e+01	2.949696e+01	
432	3.032664e-05	3.000000e+01	2.949777e+01	
433	3.042664e-05	3.000000e+01	2.949857e+01	
434	3.052664e-05	3.000000e+01	2.949938e+01	
435	3.062664e-05	3.000000e+01	2.950018e+01	
436	3.072664e-05	3.000000e+01	2.950099e+01	
437	3.082664e-05	3.000000e+01	2.950179e+01	
438	3.092664e-05	3.000000e+01	2.950260e+01	
439	3.102664e-05	3.000000e+01	2.950340e+01	
440	3.112664e-05	3.000000e+01	2.950420e+01	
441	3.122664e-05	3.000000e+01	2.950501e+01	
442	3.132664e-05	3.000000e+01	2.950581e+01	
443	3.142664e-05	3.000000e+01	2.950662e+01	
444	3.152664e-05	3.000000e+01	2.950742e+01	
445	3.162664e-05	3.000000e+01	2.950822e+01	
446	3.172664e-05	3.000000e+01	2.950903e+01	
447	3.182664e-05	3.000000e+01	2.950983e+01	
448	3.192664e-05	3.000000e+01	2.951064e+01	
449	3.202664e-05	3.000000e+01	2.951144e+01	
450	3.212664e-05	3.000000e+01	2.951224e+01	
451	3.222664e-05	3.000000e+01	2.951305e+01	
452	3.232664e-05	3.000000e+01	2.951385e+01	
453	3.242664e-05	3.000000e+01	2.951465e+01	
454	3.252664e-05	3.000000e+01	2.951546e+01	
455	3.262664e-05	3.000000e+01	2.951626e+01	
456	3.272664e-05	3.000000e+01	2.951706e+01	
457	3.282664e-05	3.000000e+01	2.951786e+01	
458	3.292664e-05	3.000000e+01	2.951867e+01	
459	3.302664e-05	3.000000e+01	2.951947e+01	
460	3.312664e-05	3.000000e+01	2.952027e+01	

Index   time            v(in)           v(out)          
--------------------------------------------------------------------------------
461	3.322664e-05	3.000000e+01	2.952107e+01	
462	3.332664e-05	3.000000e+01	2.952188e+01	
463	3.342664e-05	3.000000e+01	2.952268e+01	
464	3.352664e-05	3.000000e+01	2.952348e+01	
465	3.362664e-05	3.000000e+01	2.952428e+01	
466	3.372664e-05	3.000000e+01	2.952509e+01	
467	3.382664e-05	3.000000e+01	2.952589e+01	
468	3.392664e-05	3.000000e+01	2.952669e+01	
469	3.402664e-05	3.000000e+01	2.952749e+01	
470	3.412664e-05	3.000000e+01	2.952829e+01	
471	3.422664e-05	3.000000e+01	2.952909e+01	
472	3.432664e-05	3.000000e+01	2.952990e+01	
473	3.442664e-05	3.000000e+01	2.953070e+01	
474	3.452664e-05	3.000000e+01	2.953150e+01	
475	3.462664e-05	3.000000e+01	2.953230e+01	
476	3.472664e-05	3.000000e+01	2.953310e+01	
477	3.482664e-05	3.000000e+01	2.953390e+01	
478	3.492664e-05	3.000000e+01	2.953470e+01	
479	3.502664e-05	3.000000e+01	2.953550e+01	
480	3.512664e-05	3.000000e+01	2.953630e+01	
481	3.522664e-05	3.000000e+01	2.953710e+01	
482	3.532664e-05	3.000000e+01	2.953790e+01	
483	3.542664e-05	3.000000e+01	2.953870e+01	
484	3.552664e-05	3.000000e+01	2.953951e+01	
485	3.562664e-05	3.000000e+01	2.954031e+01	
486	3.572664e-05	3.000000e+01	2.954111e+01	
487	3.582664e-05	3.000000e+01	2.954191e+01	
488	3.592664e-05	3.000000e+01	2.954271e+01	
489	3.602664e-05	3.000000e+01	2.954351e+01	
490	3.612664e-05	3.000000e+01	2.954430e+01	
491	3.622664e-05	3.000000e+01	2.954510e+01	
492	3.632664e-05	3.000000e+01	2.954590e+01	
493	3.642664e-05	3.000000e+01	2.954670e+01	
494	3.652664e-05	3.000000e+01	2.954750e+01	
495	3.662664e-05	3.000000e+01	2.954830e+01	
496	3.672664e-05	3.000000e+01	2.954910e+01	
497	3.682664e-05	3.000000e+01	2.954990e+01	
498	3.692664e-05	3.000000e+01	2.955070e+01	
499	3.702664e-05	3.000000e+01	2.955150e+01	
500	3.712664e-05	3.000000e+01	2.955230e+01	
501	3.722664e-05	3.000000e+01	2.955310e+01	
502	3.732664e-05	3.000000e+01	2.955389e+01	
503	3.742664e-05	3.000000e+01	2.955469e+01	
504	3.752664e-05	3.000000e+01	2.955549e+01	
505	3.762664e-05	3.000000e+01	2.955629e+01	
506	3.772664e-05	3.000000e+01	2.955709e+01	
507	3.782664e-05	3.000000e+01	2.955788e+01	
508	3.792664e-05	3.000000e+01	2.955868e+01	
509	3.802664e-05	3.000000e+01	2.955948e+01	
510	3.812664e-05	3.000000e+01	2.956028e+01	
511	3.822664e-05	3.000000e+01	2.956108e+01	
512	3.832664e-05	3.000000e+01	2.956187e+01	
513	3.842664e-05	3.000000e+01	2.956267e+01	
514	3.852664e-05	3.000000e+01	2.956347e+01	
515	3.862664e-05	3.000000e+01	2.956427e+01	
516	3.872664e-05	3.000000e+01	2.956506e+01	
517	3.882664e-05	3.000000e+01	2.956586e+01	
518	3.892664e-05	3.000000e+01	2.956666e+01	

Index   time            v(in)           v(out)          
--------------------------------------------------------------------------------
519	3.902664e-05	3.000000e+01	2.956745e+01	
520	3.912664e-05	3.000000e+01	2.956825e+01	
521	3.922664e-05	3.000000e+01	2.956905e+01	
522	3.932664e-05	3.000000e+01	2.956984e+01	
523	3.942664e-05	3.000000e+01	2.957064e+01	
524	3.952664e-05	3.000000e+01	2.957144e+01	
525	3.962664e-05	3.000000e+01	2.957223e+01	
526	3.972664e-05	3.000000e+01	2.957303e+01	
527	3.982664e-05	3.000000e+01	2.957382e+01	
528	3.992664e-05	3.000000e+01	2.957462e+01	
529	4.000000e-05	3.000000e+01	2.957520e+01	
530	4.000010e-05	3.000000e+01	2.957520e+01	
531	4.000018e-05	3.000000e+01	2.957521e+01	
532	4.000023e-05	3.000000e+01	2.957521e+01	
533	4.000030e-05	3.000000e+01	2.957521e+01	
534	4.000032e-05	3.000000e+01	2.957521e+01	
535	4.000036e-05	3.000000e+01	2.957521e+01	
536	4.000037e-05	3.000000e+01	2.957521e+01	
537	4.000039e-05	3.000000e+01	2.957521e+01	
538	4.000041e-05	3.000000e+01	2.957518e+01	
539	4.000045e-05	3.000000e+01	2.957510e+01	
540	4.000050e-05	3.000000e+01	2.957496e+01	
541	4.000057e-05	3.000000e+01	2.957482e+01	
542	4.000066e-05	3.000000e+01	2.957465e+01	
543	4.000073e-05	3.000000e+01	2.957465e+01	
544	4.000077e-05	3.000000e+01	2.957465e+01	
545	4.000082e-05	3.000000e+01	2.957465e+01	
546	4.000091e-05	3.000000e+01	2.957465e+01	
547	4.000100e-05	3.000000e+01	2.957465e+01	
548	4.000101e-05	3.000000e+01	2.957465e+01	
549	4.000104e-05	3.000000e+01	2.957465e+01	
550	4.000107e-05	3.000000e+01	2.957465e+01	
551	4.000109e-05	3.000000e+01	2.957465e+01	
552	4.000114e-05	3.000000e+01	2.957465e+01	
553	4.000121e-05	3.000000e+01	2.957465e+01	
554	4.000131e-05	3.000000e+01	2.957465e+01	
555	4.000150e-05	3.000000e+01	2.957465e+01	
556	4.000187e-05	3.000000e+01	2.957465e+01	
557	4.000261e-05	3.000000e+01	2.957465e+01	
558	4.000410e-05	3.000000e+01	2.957464e+01	
559	4.000707e-05	3.000000e+01	2.957463e+01	
560	4.001302e-05	3.000000e+01	2.957462e+01	
561	4.002492e-05	3.000000e+01	2.957459e+01	
562	4.004871e-05	3.000000e+01	2.957452e+01	
563	4.009630e-05	3.000000e+01	2.957439e+01	
564	4.019147e-05	3.000000e+01	2.957414e+01	
565	4.029147e-05	3.000000e+01	2.957387e+01	
566	4.039147e-05	3.000000e+01	2.957360e+01	
567	4.049147e-05	3.000000e+01	2.957333e+01	
568	4.059147e-05	3.000000e+01	2.957306e+01	
569	4.069147e-05	3.000000e+01	2.957279e+01	
570	4.079147e-05	3.000000e+01	2.957252e+01	
571	4.089147e-05	3.000000e+01	2.957226e+01	
572	4.099147e-05	3.000000e+01	2.957199e+01	
573	4.109147e-05	3.000000e+01	2.957172e+01	
574	4.119147e-05	3.000000e+01	2.957145e+01	
575	4.129147e-05	3.000000e+01	2.957118e+01	
576	4.139147e-05	3.000000e+01	2.957091e+01	

Index   time            v(in)           v(out)          
--------------------------------------------------------------------------------
577	4.149147e-05	3.000000e+01	2.957064e+01	
578	4.159147e-05	3.000000e+01	2.957037e+01	
579	4.169147e-05	3.000000e+01	2.957011e+01	
580	4.179147e-05	3.000000e+01	2.956984e+01	
581	4.189147e-05	3.000000e+01	2.956957e+01	
582	4.199147e-05	3.000000e+01	2.956930e+01	
583	4.209147e-05	3.000000e+01	2.956903e+01	
584	4.219147e-05	3.000000e+01	2.956876e+01	
585	4.229147e-05	3.000000e+01	2.956849e+01	
586	4.239147e-05	3.000000e+01	2.956822e+01	
587	4.249147e-05	3.000000e+01	2.956795e+01	
588	4.259147e-05	3.000000e+01	2.956769e+01	
589	4.269147e-05	3.000000e+01	2.956742e+01	
590	4.279147e-05	3.000000e+01	2.956715e+01	
591	4.289147e-05	3.000000e+01	2.956688e+01	
592	4.299147e-05	3.000000e+01	2.956661e+01	
593	4.309147e-05	3.000000e+01	2.956634e+01	
594	4.319147e-05	3.000000e+01	2.956607e+01	
595	4.329147e-05	3.000000e+01	2.956580e+01	
596	4.339147e-05	3.000000e+01	2.956554e+01	
597	4.349147e-05	3.000000e+01	2.956527e+01	
598	4.359147e-05	3.000000e+01	2.956500e+01	
599	4.369147e-05	3.000000e+01	2.956473e+01	
600	4.379147e-05	3.000000e+01	2.956446e+01	
601	4.389147e-05	3.000000e+01	2.956419e+01	
602	4.399147e-05	3.000000e+01	2.956392e+01	
603	4.409147e-05	3.000000e+01	2.956365e+01	
604	4.419147e-05	3.000000e+01	2.956339e+01	
605	4.429147e-05	3.000000e+01	2.956312e+01	
606	4.439147e-05	3.000000e+01	2.956285e+01	
607	4.449147e-05	3.000000e+01	2.956258e+01	
608	4.459147e-05	3.000000e+01	2.956231e+01	
609	4.469147e-05	3.000000e+01	2.956204e+01	
610	4.479147e-05	3.000000e+01	2.956177e+01	
611	4.489147e-05	3.000000e+01	2.956150e+01	
612	4.499147e-05	3.000000e+01	2.956124e+01	
613	4.509147e-05	3.000000e+01	2.956097e+01	
614	4.519147e-05	3.000000e+01	2.956070e+01	
615	4.529147e-05	3.000000e+01	2.956043e+01	
616	4.539147e-05	3.000000e+01	2.956016e+01	
617	4.549147e-05	3.000000e+01	2.955989e+01	
618	4.559147e-05	3.000000e+01	2.955962e+01	
619	4.569147e-05	3.000000e+01	2.955935e+01	
620	4.579147e-05	3.000000e+01	2.955909e+01	
621	4.589147e-05	3.000000e+01	2.955882e+01	
622	4.599147e-05	3.000000e+01	2.955855e+01	
623	4.600100e-05	3.000000e+01	2.955852e+01	
624	4.600110e-05	3.000000e+01	2.955852e+01	
625	4.600130e-05	3.000000e+01	2.955852e+01	
626	4.600136e-05	3.000000e+01	2.955852e+01	
627	4.600146e-05	3.000000e+01	2.955852e+01	
628	4.600149e-05	3.000000e+01	2.955852e+01	
629	4.600154e-05	3.000000e+01	2.955852e+01	
630	4.600155e-05	3.000000e+01	2.955852e+01	
631	4.600158e-05	3.000000e+01	2.955852e+01	
632	4.600160e-05	3.000000e+01	2.955852e+01	
633	4.600166e-05	3.000000e+01	2.955852e+01	
634	4.600170e-05	3.000000e+01	2.955852e+01	

Index   time            v(in)           v(out)          
--------------------------------------------------------------------------------
635	4.600176e-05	3.000000e+01	2.955852e+01	
636	4.600182e-05	3.000000e+01	2.955852e+01	
637	4.600187e-05	3.000000e+01	2.955852e+01	
638	4.600193e-05	3.000000e+01	2.955853e+01	
639	4.600200e-05	3.000000e+01	2.955853e+01	
640	4.600201e-05	3.000000e+01	2.955853e+01	
641	4.600202e-05	3.000000e+01	2.955853e+01	
642	4.600206e-05	3.000000e+01	2.955853e+01	
643	4.600212e-05	3.000000e+01	2.955853e+01	
644	4.600225e-05	3.000000e+01	2.955853e+01	
645	4.600251e-05	3.000000e+01	2.955853e+01	
646	4.600303e-05	3.000000e+01	2.955854e+01	
647	4.600407e-05	3.000000e+01	2.955855e+01	
648	4.600615e-05	3.000000e+01	2.955858e+01	
649	4.601030e-05	3.000000e+01	2.955863e+01	
650	4.601862e-05	3.000000e+01	2.955873e+01	
651	4.603524e-05	3.000000e+01	2.955893e+01	
652	4.606849e-05	3.000000e+01	2.955932e+01	
653	4.611371e-05	3.000000e+01	2.955987e+01	
654	4.616183e-05	3.000000e+01	2.956045e+01	
655	4.621243e-05	3.000000e+01	2.956105e+01	
656	4.627666e-05	3.000000e+01	2.956182e+01	
657	4.637666e-05	3.000000e+01	2.956302e+01	
658	4.647666e-05	3.000000e+01	2.956422e+01	
659	4.657666e-05	3.000000e+01	2.956542e+01	
660	4.667666e-05	3.000000e+01	2.956662e+01	
661	4.677666e-05	3.000000e+01	2.956782e+01	
662	4.687666e-05	3.000000e+01	2.956902e+01	
663	4.697666e-05	3.000000e+01	2.957022e+01	
664	4.707666e-05	3.000000e+01	2.957142e+01	
665	4.717666e-05	3.000000e+01	2.957262e+01	
666	4.727666e-05	3.000000e+01	2.957382e+01	
667	4.737666e-05	3.000000e+01	2.957502e+01	
668	4.747666e-05	3.000000e+01	2.957622e+01	
669	4.757666e-05	3.000000e+01	2.957742e+01	
670	4.767666e-05	3.000000e+01	2.957862e+01	
671	4.777666e-05	3.000000e+01	2.957982e+01	
672	4.787666e-05	3.000000e+01	2.958101e+01	
673	4.797666e-05	3.000000e+01	2.958221e+01	
674	4.807666e-05	3.000000e+01	2.958341e+01	
675	4.817666e-05	3.000000e+01	2.958461e+01	
676	4.827666e-05	3.000000e+01	2.958581e+01	
677	4.837666e-05	3.000000e+01	2.958700e+01	
678	4.847666e-05	3.000000e+01	2.958820e+01	
679	4.857666e-05	3.000000e+01	2.958940e+01	
680	4.867666e-05	3.000000e+01	2.959060e+01	
681	4.877666e-05	3.000000e+01	2.959179e+01	
682	4.887666e-05	3.000000e+01	2.959299e+01	
683	4.897666e-05	3.000000e+01	2.959419e+01	
684	4.907666e-05	3.000000e+01	2.959538e+01	
685	4.917666e-05	3.000000e+01	2.959658e+01	
686	4.927666e-05	3.000000e+01	2.959778e+01	
687	4.937666e-05	3.000000e+01	2.959897e+01	
688	4.947666e-05	3.000000e+01	2.960017e+01	
689	4.957666e-05	3.000000e+01	2.960137e+01	
690	4.967666e-05	3.000000e+01	2.960256e+01	
691	4.977666e-05	3.000000e+01	2.960376e+01	
692	4.987666e-05	3.000000e+01	2.960495e+01	

Index   time            v(in)           v(out)          
--------------------------------------------------------------------------------
693	4.997666e-05	3.000000e+01	2.960615e+01	
694	5.007666e-05	3.000000e+01	2.960734e+01	
695	5.017666e-05	3.000000e+01	2.960854e+01	
696	5.027666e-05	3.000000e+01	2.960973e+01	
697	5.037666e-05	3.000000e+01	2.961093e+01	
698	5.047666e-05	3.000000e+01	2.961212e+01	
699	5.057666e-05	3.000000e+01	2.961332e+01	
700	5.067666e-05	3.000000e+01	2.961451e+01	
701	5.077666e-05	3.000000e+01	2.961571e+01	
702	5.087666e-05	3.000000e+01	2.961690e+01	
703	5.097666e-05	3.000000e+01	2.961809e+01	
704	5.107666e-05	3.000000e+01	2.961929e+01	
705	5.117666e-05	3.000000e+01	2.962048e+01	
706	5.127666e-05	3.000000e+01	2.962167e+01	
707	5.137666e-05	3.000000e+01	2.962287e+01	
708	5.147666e-05	3.000000e+01	2.962406e+01	
709	5.157666e-05	3.000000e+01	2.962525e+01	
710	5.167666e-05	3.000000e+01	2.962645e+01	
711	5.177666e-05	3.000000e+01	2.962764e+01	
712	5.187666e-05	3.000000e+01	2.962883e+01	
713	5.197666e-05	3.000000e+01	2.963002e+01	
714	5.207666e-05	3.000000e+01	2.963122e+01	
715	5.217666e-05	3.000000e+01	2.963241e+01	
716	5.227666e-05	3.000000e+01	2.963360e+01	
717	5.237666e-05	3.000000e+01	2.963479e+01	
718	5.247666e-05	3.000000e+01	2.963598e+01	
719	5.257666e-05	3.000000e+01	2.963718e+01	
720	5.267666e-05	3.000000e+01	2.963837e+01	
721	5.277666e-05	3.000000e+01	2.963956e+01	
722	5.287666e-05	3.000000e+01	2.964075e+01	
723	5.297666e-05	3.000000e+01	2.964194e+01	
724	5.307666e-05	3.000000e+01	2.964313e+01	
725	5.317666e-05	3.000000e+01	2.964432e+01	
726	5.327666e-05	3.000000e+01	2.964551e+01	
727	5.337666e-05	3.000000e+01	2.964670e+01	
728	5.347666e-05	3.000000e+01	2.964789e+01	
729	5.357666e-05	3.000000e+01	2.964908e+01	
730	5.367666e-05	3.000000e+01	2.965027e+01	
731	5.377666e-05	3.000000e+01	2.965146e+01	
732	5.387666e-05	3.000000e+01	2.965265e+01	
733	5.397666e-05	3.000000e+01	2.965384e+01	
734	5.407666e-05	3.000000e+01	2.965503e+01	
735	5.417666e-05	3.000000e+01	2.965622e+01	
736	5.427666e-05	3.000000e+01	2.965741e+01	
737	5.437666e-05	3.000000e+01	2.965860e+01	
738	5.447666e-05	3.000000e+01	2.965978e+01	
739	5.457666e-05	3.000000e+01	2.966097e+01	
740	5.467666e-05	3.000000e+01	2.966216e+01	
741	5.477666e-05	3.000000e+01	2.966335e+01	
742	5.487666e-05	3.000000e+01	2.966454e+01	
743	5.497666e-05	3.000000e+01	2.966572e+01	
744	5.507666e-05	3.000000e+01	2.966691e+01	
745	5.517666e-05	3.000000e+01	2.966810e+01	
746	5.527666e-05	3.000000e+01	2.966929e+01	
747	5.537666e-05	3.000000e+01	2.967047e+01	
748	5.547666e-05	3.000000e+01	2.967166e+01	
749	5.557666e-05	3.000000e+01	2.967285e+01	
750	5.567666e-05	3.000000e+01	2.967403e+01	

Index   time            v(in)           v(out)          
--------------------------------------------------------------------------------
751	5.577666e-05	3.000000e+01	2.967522e+01	
752	5.587666e-05	3.000000e+01	2.967641e+01	
753	5.597666e-05	3.000000e+01	2.967759e+01	
754	5.607666e-05	3.000000e+01	2.967878e+01	
755	5.617666e-05	3.000000e+01	2.967996e+01	
756	5.627666e-05	3.000000e+01	2.968115e+01	
757	5.637666e-05	3.000000e+01	2.968234e+01	
758	5.647666e-05	3.000000e+01	2.968352e+01	
759	5.657666e-05	3.000000e+01	2.968471e+01	
760	5.667666e-05	3.000000e+01	2.968589e+01	
761	5.677666e-05	3.000000e+01	2.968708e+01	
762	5.687666e-05	3.000000e+01	2.968826e+01	
763	5.697666e-05	3.000000e+01	2.968944e+01	
764	5.707666e-05	3.000000e+01	2.969063e+01	
765	5.717666e-05	3.000000e+01	2.969181e+01	
766	5.727666e-05	3.000000e+01	2.969300e+01	
767	5.737666e-05	3.000000e+01	2.969418e+01	
768	5.747666e-05	3.000000e+01	2.969536e+01	
769	5.757666e-05	3.000000e+01	2.969655e+01	
770	5.767666e-05	3.000000e+01	2.969773e+01	
771	5.777666e-05	3.000000e+01	2.969891e+01	
772	5.787666e-05	3.000000e+01	2.970010e+01	
773	5.797666e-05	3.000000e+01	2.970128e+01	
774	5.807666e-05	3.000000e+01	2.970246e+01	
775	5.817666e-05	3.000000e+01	2.970365e+01	
776	5.827666e-05	3.000000e+01	2.970483e+01	
777	5.837666e-05	3.000000e+01	2.970601e+01	
778	5.847666e-05	3.000000e+01	2.970719e+01	
779	5.857666e-05	3.000000e+01	2.970837e+01	
780	5.867666e-05	3.000000e+01	2.970956e+01	
781	5.877666e-05	3.000000e+01	2.971074e+01	
782	5.887666e-05	3.000000e+01	2.971192e+01	
783	5.897666e-05	3.000000e+01	2.971310e+01	
784	5.907666e-05	3.000000e+01	2.971428e+01	
785	5.917666e-05	3.000000e+01	2.971546e+01	
786	5.927666e-05	3.000000e+01	2.971664e+01	
787	5.937666e-05	3.000000e+01	2.971782e+01	
788	5.947666e-05	3.000000e+01	2.971900e+01	
789	5.957666e-05	3.000000e+01	2.972018e+01	
790	5.967666e-05	3.000000e+01	2.972136e+01	
791	5.977666e-05	3.000000e+01	2.972254e+01	
792	5.987666e-05	3.000000e+01	2.972372e+01	
793	5.997666e-05	3.000000e+01	2.972490e+01	
794	6.000000e-05	3.000000e+01	2.972518e+01	
795	6.000010e-05	3.000000e+01	2.972518e+01	
796	6.000018e-05	3.000000e+01	2.972518e+01	
797	6.000023e-05	3.000000e+01	2.972518e+01	
798	6.000030e-05	3.000000e+01	2.972518e+01	
799	6.000032e-05	3.000000e+01	2.972518e+01	
800	6.000036e-05	3.000000e+01	2.972518e+01	
801	6.000037e-05	3.000000e+01	2.972518e+01	
802	6.000039e-05	3.000000e+01	2.972518e+01	
803	6.000041e-05	3.000000e+01	2.972516e+01	
804	6.000045e-05	3.000000e+01	2.972507e+01	
805	6.000052e-05	3.000000e+01	2.972491e+01	
806	6.000059e-05	3.000000e+01	2.972475e+01	
807	6.000073e-05	3.000000e+01	2.972444e+01	
808	6.000081e-05	3.000000e+01	2.972444e+01	

Index   time            v(in)           v(out)          
--------------------------------------------------------------------------------
809	6.000088e-05	3.000000e+01	2.972444e+01	
810	6.000096e-05	3.000000e+01	2.972444e+01	
811	6.000100e-05	3.000000e+01	2.972444e+01	
812	6.000100e-05	3.000000e+01	2.972444e+01	
813	6.000101e-05	3.000000e+01	2.972444e+01	
814	6.000101e-05	3.000000e+01	2.972444e+01	
815	6.000102e-05	3.000000e+01	2.972444e+01	
816	6.000103e-05	3.000000e+01	2.972444e+01	
817	6.000103e-05	3.000000e+01	2.972444e+01	
818	6.000104e-05	3.000000e+01	2.972444e+01	
819	6.000106e-05	3.000000e+01	2.972444e+01	
820	6.000108e-05	3.000000e+01	2.972444e+01	
821	6.000110e-05	3.000000e+01	2.972444e+01	
822	6.000115e-05	3.000000e+01	2.972444e+01	
823	6.000121e-05	3.000000e+01	2.972444e+01	
824	6.000131e-05	3.000000e+01	2.972444e+01	
825	6.000148e-05	3.000000e+01	2.972444e+01	
826	6.000183e-05	3.000000e+01	2.972444e+01	
827	6.000251e-05	3.000000e+01	2.972444e+01	
828	6.000389e-05	3.000000e+01	2.972443e+01	
829	6.000664e-05	3.000000e+01	2.972443e+01	
830	6.001214e-05	3.000000e+01	2.972441e+01	
831	6.002314e-05	3.000000e+01	2.972438e+01	
832	6.004514e-05	3.000000e+01	2.972432e+01	
833	6.008914e-05	3.000000e+01	2.972420e+01	
834	6.017715e-05	3.000000e+01	2.972396e+01	
835	6.027715e-05	3.000000e+01	2.972369e+01	
836	6.037715e-05	3.000000e+01	2.972342e+01	
837	6.047715e-05	3.000000e+01	2.972315e+01	
838	6.057715e-05	3.000000e+01	2.972288e+01	
839	6.067715e-05	3.000000e+01	2.972261e+01	
840	6.077715e-05	3.000000e+01	2.972234e+01	
841	6.087715e-05	3.000000e+01	2.972207e+01	
842	6.097715e-05	3.000000e+01	2.972180e+01	
843	6.107715e-05	3.000000e+01	2.972153e+01	
844	6.117715e-05	3.000000e+01	2.972126e+01	
845	6.127715e-05	3.000000e+01	2.972099e+01	
846	6.137715e-05	3.000000e+01	2.972072e+01	
847	6.147715e-05	3.000000e+01	2.972045e+01	
848	6.157715e-05	3.000000e+01	2.972018e+01	
849	6.167715e-05	3.000000e+01	2.971991e+01	
850	6.177715e-05	3.000000e+01	2.971964e+01	
851	6.187715e-05	3.000000e+01	2.971937e+01	
852	6.197715e-05	3.000000e+01	2.971910e+01	
853	6.207715e-05	3.000000e+01	2.971883e+01	
854	6.217715e-05	3.000000e+01	2.971856e+01	
855	6.227715e-05	3.000000e+01	2.971829e+01	
856	6.237715e-05	3.000000e+01	2.971802e+01	
857	6.247715e-05	3.000000e+01	2.971775e+01	
858	6.257715e-05	3.000000e+01	2.971748e+01	
859	6.267715e-05	3.000000e+01	2.971721e+01	
860	6.277715e-05	3.000000e+01	2.971694e+01	
861	6.287715e-05	3.000000e+01	2.971667e+01	
862	6.297715e-05	3.000000e+01	2.971640e+01	
863	6.307715e-05	3.000000e+01	2.971613e+01	
864	6.317715e-05	3.000000e+01	2.971586e+01	
865	6.327715e-05	3.000000e+01	2.971559e+01	
866	6.337715e-05	3.000000e+01	2.971532e+01	

Index   time            v(in)           v(out)          
--------------------------------------------------------------------------------
867	6.347715e-05	3.000000e+01	2.971505e+01	
868	6.357715e-05	3.000000e+01	2.971478e+01	
869	6.367715e-05	3.000000e+01	2.971451e+01	
870	6.377715e-05	3.000000e+01	2.971424e+01	
871	6.387715e-05	3.000000e+01	2.971397e+01	
872	6.397715e-05	3.000000e+01	2.971370e+01	
873	6.407715e-05	3.000000e+01	2.971343e+01	
874	6.417715e-05	3.000000e+01	2.971316e+01	
875	6.427715e-05	3.000000e+01	2.971289e+01	
876	6.437715e-05	3.000000e+01	2.971262e+01	
877	6.447715e-05	3.000000e+01	2.971235e+01	
878	6.457715e-05	3.000000e+01	2.971208e+01	
879	6.467715e-05	3.000000e+01	2.971181e+01	
880	6.477715e-05	3.000000e+01	2.971154e+01	
881	6.487715e-05	3.000000e+01	2.971127e+01	
882	6.497715e-05	3.000000e+01	2.971100e+01	
883	6.507715e-05	3.000000e+01	2.971073e+01	
884	6.517715e-05	3.000000e+01	2.971046e+01	
885	6.527715e-05	3.000000e+01	2.971019e+01	
886	6.537715e-05	3.000000e+01	2.970992e+01	
887	6.547715e-05	3.000000e+01	2.970965e+01	
888	6.557715e-05	3.000000e+01	2.970938e+01	
889	6.567715e-05	3.000000e+01	2.970911e+01	
890	6.577715e-05	3.000000e+01	2.970884e+01	
891	6.587715e-05	3.000000e+01	2.970857e+01	
892	6.597715e-05	3.000000e+01	2.970830e+01	
893	6.600100e-05	3.000000e+01	2.970823e+01	
894	6.600110e-05	3.000000e+01	2.970823e+01	
895	6.600130e-05	3.000000e+01	2.970823e+01	
896	6.600136e-05	3.000000e+01	2.970823e+01	
897	6.600146e-05	3.000000e+01	2.970823e+01	
898	6.600149e-05	3.000000e+01	2.970823e+01	
899	6.600154e-05	3.000000e+01	2.970823e+01	
900	6.600155e-05	3.000000e+01	2.970823e+01	
901	6.600158e-05	3.000000e+01	2.970823e+01	
902	6.600160e-05	3.000000e+01	2.970823e+01	
903	6.600165e-05	3.000000e+01	2.970823e+01	
904	6.600170e-05	3.000000e+01	2.970823e+01	
905	6.600174e-05	3.000000e+01	2.970823e+01	
906	6.600179e-05	3.000000e+01	2.970823e+01	
907	6.600183e-05	3.000000e+01	2.970823e+01	
908	6.600188e-05	3.000000e+01	2.970823e+01	
909	6.600193e-05	3.000000e+01	2.970824e+01	
910	6.600200e-05	3.000000e+01	2.970824e+01	
911	6.600201e-05	3.000000e+01	2.970824e+01	
912	6.600202e-05	3.000000e+01	2.970824e+01	
913	6.600206e-05	3.000000e+01	2.970824e+01	
914	6.600212e-05	3.000000e+01	2.970824e+01	
915	6.600225e-05	3.000000e+01	2.970824e+01	
916	6.600252e-05	3.000000e+01	2.970824e+01	
917	6.600304e-05	3.000000e+01	2.970825e+01	
918	6.600409e-05	3.000000e+01	2.970827e+01	
919	6.600619e-05	3.000000e+01	2.970830e+01	
920	6.601040e-05	3.000000e+01	2.970837e+01	
921	6.601880e-05	3.000000e+01	2.970850e+01	
922	6.603561e-05	3.000000e+01	2.970877e+01	
923	6.606922e-05	3.000000e+01	2.970930e+01	
924	6.613645e-05	3.000000e+01	2.971036e+01	

Index   time            v(in)           v(out)          
--------------------------------------------------------------------------------
925	6.623645e-05	3.000000e+01	2.971195e+01	
926	6.633645e-05	3.000000e+01	2.971353e+01	
927	6.643645e-05	3.000000e+01	2.971511e+01	
928	6.653645e-05	3.000000e+01	2.971669e+01	
929	6.663645e-05	3.000000e+01	2.971828e+01	
930	6.673645e-05	3.000000e+01	2.971986e+01	
931	6.683645e-05	3.000000e+01	2.972144e+01	
932	6.693645e-05	3.000000e+01	2.972302e+01	
933	6.703645e-05	3.000000e+01	2.972460e+01	
934	6.713645e-05	3.000000e+01	2.972618e+01	
935	6.723645e-05	3.000000e+01	2.972776e+01	
936	6.733645e-05	3.000000e+01	2.972935e+01	
937	6.743645e-05	3.000000e+01	2.973093e+01	
938	6.753645e-05	3.000000e+01	2.973251e+01	
939	6.763645e-05	3.000000e+01	2.973409e+01	
940	6.773645e-05	3.000000e+01	2.973567e+01	
941	6.783645e-05	3.000000e+01	2.973724e+01	
942	6.793645e-05	3.000000e+01	2.973882e+01	
943	6.803645e-05	3.000000e+01	2.974040e+01	
944	6.813645e-05	3.000000e+01	2.974198e+01	
945	6.823645e-05	3.000000e+01	2.974356e+01	
946	6.833645e-05	3.000000e+01	2.974514e+01	
947	6.843645e-05	3.000000e+01	2.974672e+01	
948	6.853645e-05	3.000000e+01	2.974830e+01	
949	6.863645e-05	3.000000e+01	2.974987e+01	
950	6.873645e-05	3.000000e+01	2.975145e+01	
951	6.883645e-05	3.000000e+01	2.975303e+01	
952	6.893645e-05	3.000000e+01	2.975461e+01	
953	6.903645e-05	3.000000e+01	2.975618e+01	
954	6.913645e-05	3.000000e+01	2.975776e+01	
955	6.923645e-05	3.000000e+01	2.975934e+01	
956	6.933645e-05	3.000000e+01	2.976091e+01	
957	6.943645e-05	3.000000e+01	2.976249e+01	
958	6.953645e-05	3.000000e+01	2.976406e+01	
959	6.963645e-05	3.000000e+01	2.976564e+01	
960	6.973645e-05	3.000000e+01	2.976722e+01	
961	6.983645e-05	3.000000e+01	2.976879e+01	
962	6.993645e-05	3.000000e+01	2.977037e+01	
963	7.003645e-05	3.000000e+01	2.977194e+01	
964	7.013645e-05	3.000000e+01	2.977351e+01	
965	7.023645e-05	3.000000e+01	2.977509e+01	
966	7.033645e-05	3.000000e+01	2.977666e+01	
967	7.043645e-05	3.000000e+01	2.977824e+01	
968	7.053645e-05	3.000000e+01	2.977981e+01	
969	7.063645e-05	3.000000e+01	2.978138e+01	
970	7.073645e-05	3.000000e+01	2.978296e+01	
971	7.083645e-05	3.000000e+01	2.978453e+01	
972	7.093645e-05	3.000000e+01	2.978610e+01	
973	7.103645e-05	3.000000e+01	2.978768e+01	
974	7.113645e-05	3.000000e+01	2.978925e+01	
975	7.123645e-05	3.000000e+01	2.979082e+01	
976	7.133645e-05	3.000000e+01	2.979239e+01	
977	7.143645e-05	3.000000e+01	2.979396e+01	
978	7.153645e-05	3.000000e+01	2.979554e+01	
979	7.163645e-05	3.000000e+01	2.979711e+01	
980	7.173645e-05	3.000000e+01	2.979868e+01	
981	7.183645e-05	3.000000e+01	2.980025e+01	
982	7.193645e-05	3.000000e+01	2.980182e+01	

Index   time            v(in)           v(out)          
--------------------------------------------------------------------------------
983	7.203645e-05	3.000000e+01	2.980339e+01	
984	7.213645e-05	3.000000e+01	2.980496e+01	
985	7.223645e-05	3.000000e+01	2.980653e+01	
986	7.233645e-05	3.000000e+01	2.980810e+01	
987	7.243645e-05	3.000000e+01	2.980967e+01	
988	7.253645e-05	3.000000e+01	2.981124e+01	
989	7.263645e-05	3.000000e+01	2.981281e+01	
990	7.273645e-05	3.000000e+01	2.981438e+01	
991	7.283645e-05	3.000000e+01	2.981595e+01	
992	7.293645e-05	3.000000e+01	2.981751e+01	
993	7.303645e-05	3.000000e+01	2.981908e+01	
994	7.313645e-05	3.000000e+01	2.982065e+01	
995	7.323645e-05	3.000000e+01	2.982222e+01	
996	7.333645e-05	3.000000e+01	2.982379e+01	
997	7.343645e-05	3.000000e+01	2.982535e+01	
998	7.353645e-05	3.000000e+01	2.982692e+01	
999	7.363645e-05	3.000000e+01	2.982849e+01	
1000	7.373645e-05	3.000000e+01	2.983005e+01	
1001	7.383645e-05	3.000000e+01	2.983162e+01	
1002	7.393645e-05	3.000000e+01	2.983319e+01	
1003	7.403645e-05	3.000000e+01	2.983475e+01	
1004	7.413645e-05	3.000000e+01	2.983632e+01	
1005	7.423645e-05	3.000000e+01	2.983788e+01	
1006	7.433645e-05	3.000000e+01	2.983945e+01	
1007	7.443645e-05	3.000000e+01	2.984101e+01	
1008	7.453645e-05	3.000000e+01	2.984258e+01	
1009	7.463645e-05	3.000000e+01	2.984414e+01	
1010	7.473645e-05	3.000000e+01	2.984571e+01	
1011	7.483645e-05	3.000000e+01	2.984727e+01	
1012	7.493645e-05	3.000000e+01	2.984883e+01	
1013	7.503645e-05	3.000000e+01	2.985040e+01	
1014	7.513645e-05	3.000000e+01	2.985196e+01	
1015	7.523645e-05	3.000000e+01	2.985352e+01	
1016	7.533645e-05	3.000000e+01	2.985509e+01	
1017	7.543645e-05	3.000000e+01	2.985665e+01	
1018	7.553645e-05	3.000000e+01	2.985821e+01	
1019	7.563645e-05	3.000000e+01	2.985977e+01	
1020	7.573645e-05	3.000000e+01	2.986133e+01	
1021	7.583645e-05	3.000000e+01	2.986290e+01	
1022	7.593645e-05	3.000000e+01	2.986446e+01	
1023	7.603645e-05	3.000000e+01	2.986602e+01	
1024	7.613645e-05	3.000000e+01	2.986758e+01	
1025	7.623645e-05	3.000000e+01	2.986914e+01	
1026	7.633645e-05	3.000000e+01	2.987070e+01	
1027	7.643645e-05	3.000000e+01	2.987226e+01	
1028	7.653645e-05	3.000000e+01	2.987382e+01	
1029	7.663645e-05	3.000000e+01	2.987538e+01	
1030	7.673645e-05	3.000000e+01	2.987694e+01	
1031	7.683645e-05	3.000000e+01	2.987850e+01	
1032	7.693645e-05	3.000000e+01	2.988006e+01	
1033	7.703645e-05	3.000000e+01	2.988162e+01	
1034	7.713645e-05	3.000000e+01	2.988318e+01	
1035	7.723645e-05	3.000000e+01	2.988473e+01	
1036	7.733645e-05	3.000000e+01	2.988629e+01	
1037	7.743645e-05	3.000000e+01	2.988785e+01	
1038	7.753645e-05	3.000000e+01	2.988941e+01	
1039	7.763645e-05	3.000000e+01	2.989097e+01	
1040	7.773645e-05	3.000000e+01	2.989252e+01	

Index   time            v(in)           v(out)          
--------------------------------------------------------------------------------
1041	7.783645e-05	3.000000e+01	2.989408e+01	
1042	7.793645e-05	3.000000e+01	2.989564e+01	
1043	7.803645e-05	3.000000e+01	2.989719e+01	
1044	7.813645e-05	3.000000e+01	2.989875e+01	
1045	7.823645e-05	3.000000e+01	2.990030e+01	
1046	7.833645e-05	3.000000e+01	2.990186e+01	
1047	7.843645e-05	3.000000e+01	2.990342e+01	
1048	7.853645e-05	3.000000e+01	2.990497e+01	
1049	7.863645e-05	3.000000e+01	2.990653e+01	
1050	7.873645e-05	3.000000e+01	2.990808e+01	
1051	7.883645e-05	3.000000e+01	2.990963e+01	
1052	7.893645e-05	3.000000e+01	2.991119e+01	
1053	7.903645e-05	3.000000e+01	2.991274e+01	
1054	7.913645e-05	3.000000e+01	2.991430e+01	
1055	7.923645e-05	3.000000e+01	2.991585e+01	
1056	7.933645e-05	3.000000e+01	2.991740e+01	
1057	7.943645e-05	3.000000e+01	2.991896e+01	
1058	7.953645e-05	3.000000e+01	2.992051e+01	
1059	7.963645e-05	3.000000e+01	2.992206e+01	
1060	7.973645e-05	3.000000e+01	2.992361e+01	
1061	7.983645e-05	3.000000e+01	2.992516e+01	
1062	7.993645e-05	3.000000e+01	2.992672e+01	
1063	8.000000e-05	3.000000e+01	2.992770e+01	
1064	8.000010e-05	3.000000e+01	2.992770e+01	
1065	8.000018e-05	3.000000e+01	2.992770e+01	
1066	8.000023e-05	3.000000e+01	2.992771e+01	
1067	8.000030e-05	3.000000e+01	2.992771e+01	
1068	8.000032e-05	3.000000e+01	2.992771e+01	
1069	8.000036e-05	3.000000e+01	2.992771e+01	
1070	8.000037e-05	3.000000e+01	2.992771e+01	
1071	8.000039e-05	3.000000e+01	2.992771e+01	
1072	8.000041e-05	3.000000e+01	2.992769e+01	
1073	8.000045e-05	3.000000e+01	2.992759e+01	
1074	8.000052e-05	3.000000e+01	2.992741e+01	
1075	8.000060e-05	3.000000e+01	2.992723e+01	
1076	8.000076e-05	3.000000e+01	2.992687e+01	
1077	8.000090e-05	3.000000e+01	2.992672e+01	
1078	8.000100e-05	3.000000e+01	2.992672e+01	
1079	8.000101e-05	3.000000e+01	2.992672e+01	
1080	8.000104e-05	3.000000e+01	2.992672e+01	
1081	8.000110e-05	3.000000e+01	2.992672e+01	
1082	8.000115e-05	3.000000e+01	2.992672e+01	
1083	8.000127e-05	3.000000e+01	2.992672e+01	
1084	8.000150e-05	3.000000e+01	2.992672e+01	
1085	8.000196e-05	3.000000e+01	2.992671e+01	
1086	8.000288e-05	3.000000e+01	2.992671e+01	
1087	8.000472e-05	3.000000e+01	2.992671e+01	
1088	8.000841e-05	3.000000e+01	2.992670e+01	
1089	8.001577e-05	3.000000e+01	2.992668e+01	
1090	8.003050e-05	3.000000e+01	2.992664e+01	
1091	8.005996e-05	3.000000e+01	2.992656e+01	
1092	8.011889e-05	3.000000e+01	2.992640e+01	
1093	8.021889e-05	3.000000e+01	2.992612e+01	
1094	8.031889e-05	3.000000e+01	2.992585e+01	
1095	8.041889e-05	3.000000e+01	2.992558e+01	
1096	8.051889e-05	3.000000e+01	2.992531e+01	
1097	8.061889e-05	3.000000e+01	2.992504e+01	
1098	8.071889e-05	3.000000e+01	2.992476e+01	

Index   time            v(in)           v(out)          
--------------------------------------------------------------------------------
1099	8.081889e-05	3.000000e+01	2.992449e+01	
1100	8.091889e-05	3.000000e+01	2.992422e+01	
1101	8.101889e-05	3.000000e+01	2.992395e+01	
1102	8.111889e-05	3.000000e+01	2.992368e+01	
1103	8.121889e-05	3.000000e+01	2.992340e+01	
1104	8.131889e-05	3.000000e+01	2.992313e+01	
1105	8.141889e-05	3.000000e+01	2.992286e+01	
1106	8.151889e-05	3.000000e+01	2.992259e+01	
1107	8.161889e-05	3.000000e+01	2.992232e+01	
1108	8.171889e-05	3.000000e+01	2.992204e+01	
1109	8.181889e-05	3.000000e+01	2.992177e+01	
1110	8.191889e-05	3.000000e+01	2.992150e+01	
1111	8.201889e-05	3.000000e+01	2.992123e+01	
1112	8.211889e-05	3.000000e+01	2.992096e+01	
1113	8.221889e-05	3.000000e+01	2.992068e+01	
1114	8.231889e-05	3.000000e+01	2.992041e+01	
1115	8.241889e-05	3.000000e+01	2.992014e+01	
1116	8.251889e-05	3.000000e+01	2.991987e+01	
1117	8.261889e-05	3.000000e+01	2.991960e+01	
1118	8.271889e-05	3.000000e+01	2.991932e+01	
1119	8.281889e-05	3.000000e+01	2.991905e+01	
1120	8.291889e-05	3.000000e+01	2.991878e+01	
1121	8.301889e-05	3.000000e+01	2.991851e+01	
1122	8.311889e-05	3.000000e+01	2.991824e+01	
1123	8.321889e-05	3.000000e+01	2.991796e+01	
1124	8.331889e-05	3.000000e+01	2.991769e+01	
1125	8.341889e-05	3.000000e+01	2.991742e+01	
1126	8.351889e-05	3.000000e+01	2.991715e+01	
1127	8.361889e-05	3.000000e+01	2.991688e+01	
1128	8.371889e-05	3.000000e+01	2.991660e+01	
1129	8.381889e-05	3.000000e+01	2.991633e+01	
1130	8.391889e-05	3.000000e+01	2.991606e+01	
1131	8.401889e-05	3.000000e+01	2.991579e+01	
1132	8.411889e-05	3.000000e+01	2.991552e+01	
1133	8.421889e-05	3.000000e+01	2.991524e+01	
1134	8.431889e-05	3.000000e+01	2.991497e+01	
1135	8.441889e-05	3.000000e+01	2.991470e+01	
1136	8.451889e-05	3.000000e+01	2.991443e+01	
1137	8.461889e-05	3.000000e+01	2.991416e+01	
1138	8.471889e-05	3.000000e+01	2.991388e+01	
1139	8.481889e-05	3.000000e+01	2.991361e+01	
1140	8.491889e-05	3.000000e+01	2.991334e+01	
1141	8.501889e-05	3.000000e+01	2.991307e+01	
1142	8.511889e-05	3.000000e+01	2.991280e+01	
1143	8.521889e-05	3.000000e+01	2.991252e+01	
1144	8.531889e-05	3.000000e+01	2.991225e+01	
1145	8.541889e-05	3.000000e+01	2.991198e+01	
1146	8.551889e-05	3.000000e+01	2.991171e+01	
1147	8.561889e-05	3.000000e+01	2.991144e+01	
1148	8.571889e-05	3.000000e+01	2.991116e+01	
1149	8.581889e-05	3.000000e+01	2.991089e+01	
1150	8.591889e-05	3.000000e+01	2.991062e+01	
1151	8.600100e-05	3.000000e+01	2.991040e+01	
1152	8.600110e-05	3.000000e+01	2.991040e+01	
1153	8.600130e-05	3.000000e+01	2.991040e+01	
1154	8.600136e-05	3.000000e+01	2.991040e+01	
1155	8.600146e-05	3.000000e+01	2.991040e+01	
1156	8.600149e-05	3.000000e+01	2.991040e+01	

Index   time            v(in)           v(out)          
--------------------------------------------------------------------------------
1157	8.600154e-05	3.000000e+01	2.991040e+01	
1158	8.600155e-05	3.000000e+01	2.991040e+01	
1159	8.600158e-05	3.000000e+01	2.991040e+01	
1160	8.600160e-05	3.000000e+01	2.991040e+01	
1161	8.600165e-05	3.000000e+01	2.991040e+01	
1162	8.600169e-05	3.000000e+01	2.991040e+01	
1163	8.600172e-05	3.000000e+01	2.991040e+01	
1164	8.600176e-05	3.000000e+01	2.991040e+01	
1165	8.600180e-05	3.000000e+01	2.991040e+01	
1166	8.600185e-05	3.000000e+01	2.991040e+01	
1167	8.600193e-05	3.000000e+01	2.991040e+01	
1168	8.600200e-05	3.000000e+01	2.991040e+01	
1169	8.600201e-05	3.000000e+01	2.991040e+01	
1170	8.600204e-05	3.000000e+01	2.991040e+01	
1171	8.600209e-05	3.000000e+01	2.991041e+01	
1172	8.600219e-05	3.000000e+01	2.991041e+01	
1173	8.600239e-05	3.000000e+01	2.991041e+01	
1174	8.600279e-05	3.000000e+01	2.991042e+01	
1175	8.600360e-05	3.000000e+01	2.991043e+01	
1176	8.600521e-05	3.000000e+01	2.991047e+01	
1177	8.600843e-05	3.000000e+01	2.991053e+01	
1178	8.601487e-05	3.000000e+01	2.991066e+01	
1179	8.602775e-05	3.000000e+01	2.991091e+01	
1180	8.605351e-05	3.000000e+01	2.991141e+01	
1181	8.610503e-05	3.000000e+01	2.991242e+01	
1182	8.618308e-05	3.000000e+01	2.991394e+01	
1183	8.628308e-05	3.000000e+01	2.991589e+01	
1184	8.638308e-05	3.000000e+01	2.991785e+01	
1185	8.648308e-05	3.000000e+01	2.991980e+01	
1186	8.658308e-05	3.000000e+01	2.992175e+01	
1187	8.668308e-05	3.000000e+01	2.992371e+01	
1188	8.678308e-05	3.000000e+01	2.992566e+01	
1189	8.688308e-05	3.000000e+01	2.992761e+01	
1190	8.698308e-05	3.000000e+01	2.992956e+01	
1191	8.708308e-05	3.000000e+01	2.993151e+01	
1192	8.718308e-05	3.000000e+01	2.993346e+01	
1193	8.728308e-05	3.000000e+01	2.993541e+01	
1194	8.738308e-05	3.000000e+01	2.993736e+01	
1195	8.748308e-05	3.000000e+01	2.993931e+01	
1196	8.758308e-05	3.000000e+01	2.994126e+01	
1197	8.768308e-05	3.000000e+01	2.994321e+01	
1198	8.778308e-05	3.000000e+01	2.994516e+01	
1199	8.788308e-05	3.000000e+01	2.994711e+01	
1200	8.798308e-05	3.000000e+01	2.994906e+01	
1201	8.808308e-05	3.000000e+01	2.995101e+01	
1202	8.818308e-05	3.000000e+01	2.995295e+01	
1203	8.828308e-05	3.000000e+01	2.995490e+01	
1204	8.838308e-05	3.000000e+01	2.995685e+01	
1205	8.848308e-05	3.000000e+01	2.995880e+01	
1206	8.858308e-05	3.000000e+01	2.996074e+01	
1207	8.868308e-05	3.000000e+01	2.996269e+01	
1208	8.878308e-05	3.000000e+01	2.996464e+01	
1209	8.888308e-05	3.000000e+01	2.996658e+01	
1210	8.898308e-05	3.000000e+01	2.996853e+01	
1211	8.908308e-05	3.000000e+01	2.997047e+01	
1212	8.918308e-05	3.000000e+01	2.997242e+01	
1213	8.928308e-05	3.000000e+01	2.997436e+01	
1214	8.938308e-05	3.000000e+01	2.997631e+01	

Index   time            v(in)           v(out)          
--------------------------------------------------------------------------------
1215	8.948308e-05	3.000000e+01	2.997825e+01	
1216	8.958308e-05	3.000000e+01	2.998019e+01	
1217	8.968308e-05	3.000000e+01	2.998214e+01	
1218	8.978308e-05	3.000000e+01	2.998408e+01	
1219	8.988308e-05	3.000000e+01	2.998602e+01	
1220	8.998308e-05	3.000000e+01	2.998797e+01	
1221	9.008308e-05	3.000000e+01	2.998991e+01	
1222	9.018308e-05	3.000000e+01	2.999185e+01	
1223	9.028308e-05	3.000000e+01	2.999379e+01	
1224	9.038308e-05	3.000000e+01	2.999573e+01	
1225	9.048308e-05	3.000000e+01	2.999768e+01	
1226	9.058308e-05	3.000000e+01	2.999962e+01	
1227	9.068308e-05	3.000000e+01	3.000156e+01	
1228	9.078308e-05	3.000000e+01	3.000350e+01	
1229	9.088308e-05	3.000000e+01	3.000544e+01	
1230	9.098308e-05	3.000000e+01	3.000738e+01	
1231	9.108308e-05	3.000000e+01	3.000932e+01	
1232	9.118308e-05	3.000000e+01	3.001125e+01	
1233	9.128308e-05	3.000000e+01	3.001319e+01	
1234	9.138308e-05	3.000000e+01	3.001513e+01	
1235	9.148308e-05	3.000000e+01	3.001707e+01	
1236	9.158308e-05	3.000000e+01	3.001901e+01	
1237	9.168308e-05	3.000000e+01	3.002094e+01	
1238	9.178308e-05	3.000000e+01	3.002288e+01	
1239	9.188308e-05	3.000000e+01	3.002482e+01	
1240	9.198308e-05	3.000000e+01	3.002676e+01	
1241	9.208308e-05	3.000000e+01	3.002869e+01	
1242	9.218308e-05	3.000000e+01	3.003063e+01	
1243	9.228308e-05	3.000000e+01	3.003256e+01	
1244	9.238308e-05	3.000000e+01	3.003450e+01	
1245	9.248308e-05	3.000000e+01	3.003643e+01	
1246	9.258308e-05	3.000000e+01	3.003837e+01	
1247	9.268308e-05	3.000000e+01	3.004030e+01	
1248	9.278308e-05	3.000000e+01	3.004224e+01	
1249	9.288308e-05	3.000000e+01	3.004417e+01	
1250	9.298308e-05	3.000000e+01	3.004610e+01	
1251	9.308308e-05	3.000000e+01	3.004804e+01	
1252	9.318308e-05	3.000000e+01	3.004997e+01	
1253	9.328308e-05	3.000000e+01	3.005190e+01	
1254	9.338308e-05	3.000000e+01	3.005383e+01	
1255	9.348308e-05	3.000000e+01	3.005577e+01	
1256	9.358308e-05	3.000000e+01	3.005770e+01	
1257	9.368308e-05	3.000000e+01	3.005963e+01	
1258	9.378308e-05	3.000000e+01	3.006156e+01	
1259	9.388308e-05	3.000000e+01	3.006349e+01	
1260	9.398308e-05	3.000000e+01	3.006542e+01	
1261	9.408308e-05	3.000000e+01	3.006735e+01	
1262	9.418308e-05	3.000000e+01	3.006928e+01	
1263	9.428308e-05	3.000000e+01	3.007121e+01	
1264	9.438308e-05	3.000000e+01	3.007314e+01	
1265	9.448308e-05	3.000000e+01	3.007507e+01	
1266	9.458308e-05	3.000000e+01	3.007700e+01	
1267	9.468308e-05	3.000000e+01	3.007893e+01	
1268	9.478308e-05	3.000000e+01	3.008085e+01	
1269	9.488308e-05	3.000000e+01	3.008278e+01	
1270	9.498308e-05	3.000000e+01	3.008471e+01	
1271	9.508308e-05	3.000000e+01	3.008663e+01	
1272	9.518308e-05	3.000000e+01	3.008856e+01	

Index   time            v(in)           v(out)          
--------------------------------------------------------------------------------
1273	9.528308e-05	3.000000e+01	3.009049e+01	
1274	9.538308e-05	3.000000e+01	3.009241e+01	
1275	9.548308e-05	3.000000e+01	3.009434e+01	
1276	9.558308e-05	3.000000e+01	3.009626e+01	
1277	9.568308e-05	3.000000e+01	3.009819e+01	
1278	9.578308e-05	3.000000e+01	3.010011e+01	
1279	9.588308e-05	3.000000e+01	3.010204e+01	
1280	9.598308e-05	3.000000e+01	3.010396e+01	
1281	9.608308e-05	3.000000e+01	3.010589e+01	
1282	9.618308e-05	3.000000e+01	3.010781e+01	
1283	9.628308e-05	3.000000e+01	3.010973e+01	
1284	9.638308e-05	3.000000e+01	3.011165e+01	
1285	9.648308e-05	3.000000e+01	3.011358e+01	
1286	9.658308e-05	3.000000e+01	3.011550e+01	
1287	9.668308e-05	3.000000e+01	3.011742e+01	
1288	9.678308e-05	3.000000e+01	3.011934e+01	
1289	9.688308e-05	3.000000e+01	3.012126e+01	
1290	9.698308e-05	3.000000e+01	3.012318e+01	
1291	9.708308e-05	3.000000e+01	3.012510e+01	
1292	9.718308e-05	3.000000e+01	3.012702e+01	
1293	9.728308e-05	3.000000e+01	3.012894e+01	
1294	9.738308e-05	3.000000e+01	3.013086e+01	
1295	9.748308e-05	3.000000e+01	3.013278e+01	
1296	9.758308e-05	3.000000e+01	3.013470e+01	
1297	9.768308e-05	3.000000e+01	3.013662e+01	
1298	9.778308e-05	3.000000e+01	3.013854e+01	
1299	9.788308e-05	3.000000e+01	3.014045e+01	
1300	9.798308e-05	3.000000e+01	3.014237e+01	
1301	9.808308e-05	3.000000e+01	3.014429e+01	
1302	9.818308e-05	3.000000e+01	3.014621e+01	
1303	9.828308e-05	3.000000e+01	3.014812e+01	
1304	9.838308e-05	3.000000e+01	3.015004e+01	
1305	9.848308e-05	3.000000e+01	3.015195e+01	
1306	9.858308e-05	3.000000e+01	3.015387e+01	
1307	9.868308e-05	3.000000e+01	3.015578e+01	
1308	9.878308e-05	3.000000e+01	3.015770e+01	
1309	9.888308e-05	3.000000e+01	3.015961e+01	
1310	9.898308e-05	3.000000e+01	3.016153e+01	
1311	9.908308e-05	3.000000e+01	3.016344e+01	
1312	9.918308e-05	3.000000e+01	3.016535e+01	
1313	9.928308e-05	3.000000e+01	3.016727e+01	
1314	9.938308e-05	3.000000e+01	3.016918e+01	
1315	9.948308e-05	3.000000e+01	3.017109e+01	
1316	9.958308e-05	3.000000e+01	3.017301e+01	
1317	9.968308e-05	3.000000e+01	3.017492e+01	
1318	9.978308e-05	3.000000e+01	3.017683e+01	
1319	9.988308e-05	3.000000e+01	3.017874e+01	
1320	9.998308e-05	3.000000e+01	3.018065e+01	
1321	1.000000e-04	3.000000e+01	3.018097e+01	
1322	1.000001e-04	3.000000e+01	3.018098e+01	
1323	1.000002e-04	3.000000e+01	3.018098e+01	
1324	1.000002e-04	3.000000e+01	3.018098e+01	
1325	1.000003e-04	3.000000e+01	3.018098e+01	
1326	1.000003e-04	3.000000e+01	3.018098e+01	
1327	1.000004e-04	3.000000e+01	3.018098e+01	
1328	1.000004e-04	3.000000e+01	3.018098e+01	
1329	1.000004e-04	3.000000e+01	3.018098e+01	
1330	1.000004e-04	3.000000e+01	3.018096e+01	

Index   time            v(in)           v(out)          
--------------------------------------------------------------------------------
1331	1.000004e-04	3.000000e+01	3.018087e+01	
1332	1.000005e-04	3.000000e+01	3.018068e+01	
1333	1.000006e-04	3.000000e+01	3.018048e+01	
1334	1.000008e-04	3.000000e+01	3.018008e+01	
1335	1.000010e-04	3.000000e+01	3.017983e+01	
1336	1.000010e-04	3.000000e+01	3.017983e+01	
1337	1.000010e-04	3.000000e+01	3.017983e+01	
1338	1.000010e-04	3.000000e+01	3.017983e+01	
1339	1.000010e-04	3.000000e+01	3.017983e+01	
1340	1.000010e-04	3.000000e+01	3.017983e+01	
1341	1.000011e-04	3.000000e+01	3.017983e+01	
1342	1.000011e-04	3.000000e+01	3.017983e+01	
1343	1.000012e-04	3.000000e+01	3.017983e+01	
1344	1.000013e-04	3.000000e+01	3.017983e+01	
1345	1.000015e-04	3.000000e+01	3.017983e+01	
1346	1.000019e-04	3.000000e+01	3.017983e+01	
1347	1.000027e-04	3.000000e+01	3.017983e+01	
1348	1.000042e-04	3.000000e+01	3.017982e+01	
1349	1.000073e-04	3.000000e+01	3.017981e+01	
1350	1.000135e-04	3.000000e+01	3.017980e+01	
1351	1.000259e-04	3.000000e+01	3.017976e+01	
1352	1.000506e-04	3.000000e+01	3.017969e+01	
1353	1.001001e-04	3.000000e+01	3.017956e+01	
1354	1.001991e-04	3.000000e+01	3.017929e+01	
1355	1.002991e-04	3.000000e+01	3.017901e+01	
1356	1.003991e-04	3.000000e+01	3.017874e+01	
1357	1.004991e-04	3.000000e+01	3.017846e+01	
1358	1.005991e-04	3.000000e+01	3.017819e+01	
1359	1.006991e-04	3.000000e+01	3.017792e+01	
1360	1.007991e-04	3.000000e+01	3.017764e+01	
1361	1.008991e-04	3.000000e+01	3.017737e+01	
1362	1.009991e-04	3.000000e+01	3.017709e+01	
1363	1.010991e-04	3.000000e+01	3.017682e+01	
1364	1.011991e-04	3.000000e+01	3.017654e+01	
1365	1.012991e-04	3.000000e+01	3.017627e+01	
1366	1.013991e-04	3.000000e+01	3.017599e+01	
1367	1.014991e-04	3.000000e+01	3.017572e+01	
1368	1.015991e-04	3.000000e+01	3.017545e+01	
1369	1.016991e-04	3.000000e+01	3.017517e+01	
1370	1.017991e-04	3.000000e+01	3.017490e+01	
1371	1.018991e-04	3.000000e+01	3.017462e+01	
1372	1.019991e-04	3.000000e+01	3.017435e+01	
1373	1.020991e-04	3.000000e+01	3.017407e+01	
1374	1.021991e-04	3.000000e+01	3.017380e+01	
1375	1.022991e-04	3.000000e+01	3.017353e+01	
1376	1.023991e-04	3.000000e+01	3.017325e+01	
1377	1.024991e-04	3.000000e+01	3.017298e+01	
1378	1.025991e-04	3.000000e+01	3.017270e+01	
1379	1.026991e-04	3.000000e+01	3.017243e+01	
1380	1.027991e-04	3.000000e+01	3.017215e+01	
1381	1.028991e-04	3.000000e+01	3.017188e+01	
1382	1.029991e-04	3.000000e+01	3.017161e+01	
1383	1.030991e-04	3.000000e+01	3.017133e+01	
1384	1.031991e-04	3.000000e+01	3.017106e+01	
1385	1.032991e-04	3.000000e+01	3.017078e+01	
1386	1.033991e-04	3.000000e+01	3.017051e+01	
1387	1.034991e-04	3.000000e+01	3.017023e+01	
1388	1.035991e-04	3.000000e+01	3.016996e+01	

Index   time            v(in)           v(out)          
--------------------------------------------------------------------------------
1389	1.036991e-04	3.000000e+01	3.016969e+01	
1390	1.037991e-04	3.000000e+01	3.016941e+01	
1391	1.038991e-04	3.000000e+01	3.016914e+01	
1392	1.039991e-04	3.000000e+01	3.016886e+01	
1393	1.040991e-04	3.000000e+01	3.016859e+01	
1394	1.041991e-04	3.000000e+01	3.016831e+01	
1395	1.042991e-04	3.000000e+01	3.016804e+01	
1396	1.043991e-04	3.000000e+01	3.016777e+01	
1397	1.044991e-04	3.000000e+01	3.016749e+01	
1398	1.045991e-04	3.000000e+01	3.016722e+01	
1399	1.046991e-04	3.000000e+01	3.016694e+01	
1400	1.047991e-04	3.000000e+01	3.016667e+01	
1401	1.048991e-04	3.000000e+01	3.016639e+01	
1402	1.049991e-04	3.000000e+01	3.016612e+01	
1403	1.050991e-04	3.000000e+01	3.016585e+01	
1404	1.051991e-04	3.000000e+01	3.016557e+01	
1405	1.052991e-04	3.000000e+01	3.016530e+01	
1406	1.053991e-04	3.000000e+01	3.016502e+01	
1407	1.054991e-04	3.000000e+01	3.016475e+01	
1408	1.055991e-04	3.000000e+01	3.016448e+01	
1409	1.056991e-04	3.000000e+01	3.016420e+01	
1410	1.057991e-04	3.000000e+01	3.016393e+01	
1411	1.058991e-04	3.000000e+01	3.016365e+01	
1412	1.059991e-04	3.000000e+01	3.016338e+01	
1413	1.060010e-04	3.000000e+01	3.016337e+01	
1414	1.060011e-04	3.000000e+01	3.016337e+01	
1415	1.060013e-04	3.000000e+01	3.016337e+01	
1416	1.060014e-04	3.000000e+01	3.016337e+01	
1417	1.060015e-04	3.000000e+01	3.016337e+01	
1418	1.060015e-04	3.000000e+01	3.016337e+01	
1419	1.060015e-04	3.000000e+01	3.016337e+01	
1420	1.060016e-04	3.000000e+01	3.016337e+01	
1421	1.060016e-04	3.000000e+01	3.016337e+01	
1422	1.060016e-04	3.000000e+01	3.016337e+01	
1423	1.060016e-04	3.000000e+01	3.016337e+01	
1424	1.060017e-04	3.000000e+01	3.016337e+01	
1425	1.060017e-04	3.000000e+01	3.016337e+01	
1426	1.060018e-04	3.000000e+01	3.016338e+01	
1427	1.060018e-04	3.000000e+01	3.016338e+01	
1428	1.060019e-04	3.000000e+01	3.016338e+01	
1429	1.060020e-04	3.000000e+01	3.016338e+01	
1430	1.060020e-04	3.000000e+01	3.016338e+01	
1431	1.060020e-04	3.000000e+01	3.016338e+01	
1432	1.060021e-04	3.000000e+01	3.016338e+01	
1433	1.060022e-04	3.000000e+01	3.016339e+01	
1434	1.060025e-04	3.000000e+01	3.016339e+01	
1435	1.060029e-04	3.000000e+01	3.016340e+01	
1436	1.060039e-04	3.000000e+01	3.016342e+01	
1437	1.060058e-04	3.000000e+01	3.016347e+01	
1438	1.060096e-04	3.000000e+01	3.016356e+01	
1439	1.060172e-04	3.000000e+01	3.016373e+01	
1440	1.060323e-04	3.000000e+01	3.016408e+01	
1441	1.060627e-04	3.000000e+01	3.016478e+01	
1442	1.060993e-04	3.000000e+01	3.016563e+01	
1443	1.061347e-04	3.000000e+01	3.016645e+01	
1444	1.061725e-04	3.000000e+01	3.016732e+01	
1445	1.062112e-04	3.000000e+01	3.016822e+01	
1446	1.062576e-04	3.000000e+01	3.016929e+01	

Index   time            v(in)           v(out)          
--------------------------------------------------------------------------------
1447	1.063132e-04	3.000000e+01	3.017057e+01	
1448	1.063904e-04	3.000000e+01	3.017236e+01	
1449	1.064904e-04	3.000000e+01	3.017467e+01	
1450	1.065904e-04	3.000000e+01	3.017698e+01	
1451	1.066904e-04	3.000000e+01	3.017929e+01	
1452	1.067904e-04	3.000000e+01	3.018160e+01	
1453	1.068904e-04	3.000000e+01	3.018390e+01	
1454	1.069904e-04	3.000000e+01	3.018621e+01	
1455	1.070904e-04	3.000000e+01	3.018852e+01	
1456	1.071904e-04	3.000000e+01	3.019083e+01	
1457	1.072904e-04	3.000000e+01	3.019314e+01	
1458	1.073904e-04	3.000000e+01	3.019544e+01	
1459	1.074904e-04	3.000000e+01	3.019775e+01	
1460	1.075904e-04	3.000000e+01	3.020006e+01	
1461	1.076904e-04	3.000000e+01	3.020236e+01	
1462	1.077904e-04	3.000000e+01	3.020467e+01	
1463	1.078904e-04	3.000000e+01	3.020697e+01	
1464	1.079904e-04	3.000000e+01	3.020928e+01	
1465	1.080904e-04	3.000000e+01	3.021158e+01	
1466	1.081904e-04	3.000000e+01	3.021388e+01	
1467	1.082904e-04	3.000000e+01	3.021619e+01	
1468	1.083904e-04	3.000000e+01	3.021849e+01	
1469	1.084904e-04	3.000000e+01	3.022079e+01	
1470	1.085904e-04	3.000000e+01	3.022310e+01	
1471	1.086904e-04	3.000000e+01	3.022540e+01	
1472	1.087904e-04	3.000000e+01	3.022770e+01	
1473	1.088904e-04	3.000000e+01	3.023000e+01	
1474	1.089904e-04	3.000000e+01	3.023230e+01	
1475	1.090904e-04	3.000000e+01	3.023460e+01	
1476	1.091904e-04	3.000000e+01	3.023690e+01	
1477	1.092904e-04	3.000000e+01	3.023920e+01	
1478	1.093904e-04	3.000000e+01	3.024150e+01	
1479	1.094904e-04	3.000000e+01	3.024380e+01	
1480	1.095904e-04	3.000000e+01	3.024610e+01	
1481	1.096904e-04	3.000000e+01	3.024840e+01	
1482	1.097904e-04	3.000000e+01	3.025069e+01	
1483	1.098904e-04	3.000000e+01	3.025299e+01	
1484	1.099904e-04	3.000000e+01	3.025529e+01	
1485	1.100904e-04	3.000000e+01	3.025758e+01	
1486	1.101904e-04	3.000000e+01	3.025988e+01	
1487	1.102904e-04	3.000000e+01	3.026218e+01	
1488	1.103904e-04	3.000000e+01	3.026447e+01	
1489	1.104904e-04	3.000000e+01	3.026677e+01	
1490	1.105904e-04	3.000000e+01	3.026906e+01	
1491	1.106904e-04	3.000000e+01	3.027136e+01	
1492	1.107904e-04	3.000000e+01	3.027365e+01	
1493	1.108904e-04	3.000000e+01	3.027594e+01	
1494	1.109904e-04	3.000000e+01	3.027824e+01	
1495	1.110904e-04	3.000000e+01	3.028053e+01	
1496	1.111904e-04	3.000000e+01	3.028282e+01	
1497	1.112904e-04	3.000000e+01	3.028511e+01	
1498	1.113904e-04	3.000000e+01	3.028740e+01	
1499	1.114904e-04	3.000000e+01	3.028969e+01	
1500	1.115904e-04	3.000000e+01	3.029199e+01	
1501	1.116904e-04	3.000000e+01	3.029428e+01	
1502	1.117904e-04	3.000000e+01	3.029657e+01	
1503	1.118904e-04	3.000000e+01	3.029885e+01	
1504	1.119904e-04	3.000000e+01	3.030114e+01	

Index   time            v(in)           v(out)          
--------------------------------------------------------------------------------
1505	1.120904e-04	3.000000e+01	3.030343e+01	
1506	1.121904e-04	3.000000e+01	3.030572e+01	
1507	1.122904e-04	3.000000e+01	3.030801e+01	
1508	1.123904e-04	3.000000e+01	3.031030e+01	
1509	1.124904e-04	3.000000e+01	3.031258e+01	
1510	1.125904e-04	3.000000e+01	3.031487e+01	
1511	1.126904e-04	3.000000e+01	3.031716e+01	
1512	1.127904e-04	3.000000e+01	3.031944e+01	
1513	1.128904e-04	3.000000e+01	3.032173e+01	
1514	1.129904e-04	3.000000e+01	3.032401e+01	
1515	1.130904e-04	3.000000e+01	3.032630e+01	
1516	1.131904e-04	3.000000e+01	3.032858e+01	
1517	1.132904e-04	3.000000e+01	3.033086e+01	
1518	1.133904e-04	3.000000e+01	3.033315e+01	
1519	1.134904e-04	3.000000e+01	3.033543e+01	
1520	1.135904e-04	3.000000e+01	3.033771e+01	
1521	1.136904e-04	3.000000e+01	3.034000e+01	
1522	1.137904e-04	3.000000e+01	3.034228e+01	
1523	1.138904e-04	3.000000e+01	3.034456e+01	
1524	1.139904e-04	3.000000e+01	3.034684e+01	
1525	1.140904e-04	3.000000e+01	3.034912e+01	
1526	1.141904e-04	3.000000e+01	3.035140e+01	
1527	1.142904e-04	3.000000e+01	3.035368e+01	
1528	1.143904e-04	3.000000e+01	3.035596e+01	
1529	1.144904e-04	3.000000e+01	3.035824e+01	
1530	1.145904e-04	3.000000e+01	3.036052e+01	
1531	1.146904e-04	3.000000e+01	3.036279e+01	
1532	1.147904e-04	3.000000e+01	3.036507e+01	
1533	1.148904e-04	3.000000e+01	3.036735e+01	
1534	1.149904e-04	3.000000e+01	3.036963e+01	
1535	1.150904e-04	3.000000e+01	3.037190e+01	
1536	1.151904e-04	3.000000e+01	3.037418e+01	
1537	1.152904e-04	3.000000e+01	3.037645e+01	
1538	1.153904e-04	3.000000e+01	3.037873e+01	
1539	1.154904e-04	3.000000e+01	3.038100e+01	
1540	1.155904e-04	3.000000e+01	3.038328e+01	
1541	1.156904e-04	3.000000e+01	3.038555e+01	
1542	1.157904e-04	3.000000e+01	3.038783e+01	
1543	1.158904e-04	3.000000e+01	3.039010e+01	
1544	1.159904e-04	3.000000e+01	3.039237e+01	
1545	1.160904e-04	3.000000e+01	3.039464e+01	
1546	1.161904e-04	3.000000e+01	3.039692e+01	
1547	1.162904e-04	3.000000e+01	3.039919e+01	
1548	1.163904e-04	3.000000e+01	3.040146e+01	
1549	1.164904e-04	3.000000e+01	3.040373e+01	
1550	1.165904e-04	3.000000e+01	3.040600e+01	
1551	1.166904e-04	3.000000e+01	3.040827e+01	
1552	1.167904e-04	3.000000e+01	3.041054e+01	
1553	1.168904e-04	3.000000e+01	3.041281e+01	
1554	1.169904e-04	3.000000e+01	3.041507e+01	
1555	1.170904e-04	3.000000e+01	3.041734e+01	
1556	1.171904e-04	3.000000e+01	3.041961e+01	
1557	1.172904e-04	3.000000e+01	3.042188e+01	
1558	1.173904e-04	3.000000e+01	3.042414e+01	
1559	1.174904e-04	3.000000e+01	3.042641e+01	
1560	1.175904e-04	3.000000e+01	3.042868e+01	
1561	1.176904e-04	3.000000e+01	3.043094e+01	
1562	1.177904e-04	3.000000e+01	3.043321e+01	

Index   time            v(in)           v(out)          
--------------------------------------------------------------------------------
1563	1.178904e-04	3.000000e+01	3.043547e+01	
1564	1.179904e-04	3.000000e+01	3.043774e+01	
1565	1.180904e-04	3.000000e+01	3.044000e+01	
1566	1.181904e-04	3.000000e+01	3.044226e+01	
1567	1.182904e-04	3.000000e+01	3.044453e+01	
1568	1.183904e-04	3.000000e+01	3.044679e+01	
1569	1.184904e-04	3.000000e+01	3.044905e+01	
1570	1.185904e-04	3.000000e+01	3.045131e+01	
1571	1.186904e-04	3.000000e+01	3.045357e+01	
1572	1.187904e-04	3.000000e+01	3.045583e+01	
1573	1.188904e-04	3.000000e+01	3.045809e+01	
1574	1.189904e-04	3.000000e+01	3.046035e+01	
1575	1.190904e-04	3.000000e+01	3.046261e+01	
1576	1.191904e-04	3.000000e+01	3.046487e+01	
1577	1.192904e-04	3.000000e+01	3.046713e+01	
1578	1.193904e-04	3.000000e+01	3.046939e+01	
1579	1.194904e-04	3.000000e+01	3.047165e+01	
1580	1.195904e-04	3.000000e+01	3.047390e+01	
1581	1.196904e-04	3.000000e+01	3.047616e+01	
1582	1.197904e-04	3.000000e+01	3.047842e+01	
1583	1.198904e-04	3.000000e+01	3.048067e+01	
1584	1.199904e-04	3.000000e+01	3.048293e+01	
1585	1.200000e-04	3.000000e+01	3.048315e+01	
1586	1.200001e-04	3.000000e+01	3.048315e+01	
1587	1.200002e-04	3.000000e+01	3.048315e+01	
1588	1.200002e-04	3.000000e+01	3.048315e+01	
1589	1.200003e-04	3.000000e+01	3.048315e+01	
1590	1.200003e-04	3.000000e+01	3.048315e+01	
1591	1.200004e-04	3.000000e+01	3.048315e+01	
1592	1.200004e-04	3.000000e+01	3.048315e+01	
1593	1.200004e-04	3.000000e+01	3.048315e+01	
1594	1.200004e-04	3.000000e+01	3.048313e+01	
1595	1.200004e-04	3.000000e+01	3.048304e+01	
1596	1.200005e-04	3.000000e+01	3.048285e+01	
1597	1.200006e-04	3.000000e+01	3.048264e+01	
1598	1.200008e-04	3.000000e+01	3.048220e+01	
1599	1.200010e-04	3.000000e+01	3.048185e+01	
1600	1.200010e-04	3.000000e+01	3.048185e+01	
1601	1.200010e-04	3.000000e+01	3.048185e+01	
1602	1.200010e-04	3.000000e+01	3.048185e+01	
1603	1.200010e-04	3.000000e+01	3.048185e+01	
1604	1.200010e-04	3.000000e+01	3.048185e+01	
1605	1.200010e-04	3.000000e+01	3.048185e+01	
1606	1.200010e-04	3.000000e+01	3.048185e+01	
1607	1.200011e-04	3.000000e+01	3.048185e+01	
1608	1.200011e-04	3.000000e+01	3.048185e+01	
1609	1.200011e-04	3.000000e+01	3.048185e+01	
1610	1.200012e-04	3.000000e+01	3.048185e+01	
1611	1.200013e-04	3.000000e+01	3.048185e+01	
1612	1.200015e-04	3.000000e+01	3.048184e+01	
1613	1.200018e-04	3.000000e+01	3.048184e+01	
1614	1.200026e-04	3.000000e+01	3.048184e+01	
1615	1.200040e-04	3.000000e+01	3.048184e+01	
1616	1.200070e-04	3.000000e+01	3.048183e+01	
1617	1.200128e-04	3.000000e+01	3.048181e+01	
1618	1.200245e-04	3.000000e+01	3.048178e+01	
1619	1.200479e-04	3.000000e+01	3.048172e+01	
1620	1.200946e-04	3.000000e+01	3.048159e+01	

Index   time            v(in)           v(out)          
--------------------------------------------------------------------------------
1621	1.201881e-04	3.000000e+01	3.048133e+01	
1622	1.202881e-04	3.000000e+01	3.048105e+01	
1623	1.203881e-04	3.000000e+01	3.048077e+01	
1624	1.204881e-04	3.000000e+01	3.048050e+01	
1625	1.205881e-04	3.000000e+01	3.048022e+01	
1626	1.206881e-04	3.000000e+01	3.047994e+01	
1627	1.207881e-04	3.000000e+01	3.047966e+01	
1628	1.208881e-04	3.000000e+01	3.047939e+01	
1629	1.209881e-04	3.000000e+01	3.047911e+01	
1630	1.210881e-04	3.000000e+01	3.047883e+01	
1631	1.211881e-04	3.000000e+01	3.047856e+01	
1632	1.212881e-04	3.000000e+01	3.047828e+01	
1633	1.213881e-04	3.000000e+01	3.047800e+01	
1634	1.214881e-04	3.000000e+01	3.047773e+01	
1635	1.215881e-04	3.000000e+01	3.047745e+01	
1636	1.216881e-04	3.000000e+01	3.047717e+01	
1637	1.217881e-04	3.000000e+01	3.047689e+01	
1638	1.218881e-04	3.000000e+01	3.047662e+01	
1639	1.219881e-04	3.000000e+01	3.047634e+01	
1640	1.220881e-04	3.000000e+01	3.047606e+01	
1641	1.221881e-04	3.000000e+01	3.047579e+01	
1642	1.222881e-04	3.000000e+01	3.047551e+01	
1643	1.223881e-04	3.000000e+01	3.047523e+01	
1644	1.224881e-04	3.000000e+01	3.047495e+01	
1645	1.225881e-04	3.000000e+01	3.047468e+01	
1646	1.226881e-04	3.000000e+01	3.047440e+01	
1647	1.227881e-04	3.000000e+01	3.047412e+01	
1648	1.228881e-04	3.000000e+01	3.047385e+01	
1649	1.229881e-04	3.000000e+01	3.047357e+01	
1650	1.230881e-04	3.000000e+01	3.047329e+01	
1651	1.231881e-04	3.000000e+01	3.047302e+01	
1652	1.232881e-04	3.000000e+01	3.047274e+01	
1653	1.233881e-04	3.000000e+01	3.047246e+01	
1654	1.234881e-04	3.000000e+01	3.047218e+01	
1655	1.235881e-04	3.000000e+01	3.047191e+01	
1656	1.236881e-04	3.000000e+01	3.047163e+01	
1657	1.237881e-04	3.000000e+01	3.047135e+01	
1658	1.238881e-04	3.000000e+01	3.047108e+01	
1659	1.239881e-04	3.000000e+01	3.047080e+01	
1660	1.240881e-04	3.000000e+01	3.047052e+01	
1661	1.241881e-04	3.000000e+01	3.047025e+01	
1662	1.242881e-04	3.000000e+01	3.046997e+01	
1663	1.243881e-04	3.000000e+01	3.046969e+01	
1664	1.244881e-04	3.000000e+01	3.046941e+01	
1665	1.245881e-04	3.000000e+01	3.046914e+01	
1666	1.246881e-04	3.000000e+01	3.046886e+01	
1667	1.247881e-04	3.000000e+01	3.046858e+01	
1668	1.248881e-04	3.000000e+01	3.046831e+01	
1669	1.249881e-04	3.000000e+01	3.046803e+01	
1670	1.250881e-04	3.000000e+01	3.046775e+01	
1671	1.251881e-04	3.000000e+01	3.046748e+01	
1672	1.252881e-04	3.000000e+01	3.046720e+01	
1673	1.253881e-04	3.000000e+01	3.046692e+01	
1674	1.254881e-04	3.000000e+01	3.046664e+01	
1675	1.255881e-04	3.000000e+01	3.046637e+01	
1676	1.256881e-04	3.000000e+01	3.046609e+01	
1677	1.257881e-04	3.000000e+01	3.046581e+01	
1678	1.258881e-04	3.000000e+01	3.046554e+01	

Index   time            v(in)           v(out)          
--------------------------------------------------------------------------------
1679	1.259881e-04	3.000000e+01	3.046526e+01	
1680	1.260010e-04	3.000000e+01	3.046522e+01	
1681	1.260011e-04	3.000000e+01	3.046522e+01	
1682	1.260013e-04	3.000000e+01	3.046522e+01	
1683	1.260014e-04	3.000000e+01	3.046522e+01	
1684	1.260015e-04	3.000000e+01	3.046522e+01	
1685	1.260015e-04	3.000000e+01	3.046522e+01	
1686	1.260015e-04	3.000000e+01	3.046522e+01	
1687	1.260016e-04	3.000000e+01	3.046522e+01	
[...]
72161	5.066295e-03	3.000000e+01	4.197522e+01	
72162	5.066348e-03	3.000000e+01	4.197535e+01	
72163	5.066416e-03	3.000000e+01	4.197552e+01	
72164	5.066516e-03	3.000000e+01	4.197577e+01	
72165	5.066616e-03	3.000000e+01	4.197601e+01	
72166	5.066716e-03	3.000000e+01	4.197625e+01	
72167	5.066816e-03	3.000000e+01	4.197649e+01	
72168	5.066916e-03	3.000000e+01	4.197673e+01	
72169	5.067016e-03	3.000000e+01	4.197696e+01	
72170	5.067116e-03	3.000000e+01	4.197719e+01	
72171	5.067216e-03	3.000000e+01	4.197742e+01	
72172	5.067316e-03	3.000000e+01	4.197764e+01	
72173	5.067416e-03	3.000000e+01	4.197786e+01	
72174	5.067516e-03	3.000000e+01	4.197808e+01	
72175	5.067616e-03	3.000000e+01	4.197830e+01	
72176	5.067716e-03	3.000000e+01	4.197851e+01	
72177	5.067816e-03	3.000000e+01	4.197872e+01	
72178	5.067916e-03	3.000000e+01	4.197893e+01	
72179	5.068016e-03	3.000000e+01	4.197913e+01	
72180	5.068116e-03	3.000000e+01	4.197934e+01	
72181	5.068216e-03	3.000000e+01	4.197953e+01	
72182	5.068316e-03	3.000000e+01	4.197973e+01	
72183	5.068416e-03	3.000000e+01	4.197992e+01	
72184	5.068516e-03	3.000000e+01	4.198011e+01	
72185	5.068616e-03	3.000000e+01	4.198030e+01	
72186	5.068716e-03	3.000000e+01	4.198048e+01	
72187	5.068816e-03	3.000000e+01	4.198066e+01	
72188	5.068916e-03	3.000000e+01	4.198084e+01	
72189	5.069016e-03	3.000000e+01	4.198102e+01	
72190	5.069116e-03	3.000000e+01	4.198119e+01	
72191	5.069216e-03	3.000000e+01	4.198136e+01	
72192	5.069316e-03	3.000000e+01	4.198153e+01	
72193	5.069416e-03	3.000000e+01	4.198169e+01	
72194	5.069516e-03	3.000000e+01	4.198185e+01	
72195	5.069616e-03	3.000000e+01	4.198201e+01	
72196	5.069716e-03	3.000000e+01	4.198217e+01	
72197	5.069816e-03	3.000000e+01	4.198232e+01	
72198	5.069916e-03	3.000000e+01	4.198247e+01	
72199	5.070016e-03	3.000000e+01	4.198262e+01	
72200	5.070116e-03	3.000000e+01	4.198276e+01	
72201	5.070216e-03	3.000000e+01	4.198290e+01	
72202	5.070316e-03	3.000000e+01	4.198304e+01	
72203	5.070416e-03	3.000000e+01	4.198317e+01	
72204	5.070516e-03	3.000000e+01	4.198331e+01	
72205	5.070616e-03	3.000000e+01	4.198344e+01	
72206	5.070716e-03	3.000000e+01	4.198356e+01	

Index   time            v(in)           v(out)          
--------------------------------------------------------------------------------
72207	5.070816e-03	3.000000e+01	4.198369e+01	
72208	5.070916e-03	3.000000e+01	4.198381e+01	
72209	5.071016e-03	3.000000e+01	4.198393e+01	
72210	5.071116e-03	3.000000e+01	4.198404e+01	
72211	5.071216e-03	3.000000e+01	4.198415e+01	
72212	5.071316e-03	3.000000e+01	4.198426e+01	
72213	5.071416e-03	3.000000e+01	4.198437e+01	
72214	5.071516e-03	3.000000e+01	4.198447e+01	
72215	5.071616e-03	3.000000e+01	4.198457e+01	
72216	5.071716e-03	3.000000e+01	4.198467e+01	
72217	5.071816e-03	3.000000e+01	4.198477e+01	
72218	5.071916e-03	3.000000e+01	4.198486e+01	
72219	5.072016e-03	3.000000e+01	4.198495e+01	
72220	5.072116e-03	3.000000e+01	4.198504e+01	
72221	5.072216e-03	3.000000e+01	4.198512e+01	
72222	5.072316e-03	3.000000e+01	4.198520e+01	
72223	5.072416e-03	3.000000e+01	4.198528e+01	
72224	5.072516e-03	3.000000e+01	4.198535e+01	
72225	5.072616e-03	3.000000e+01	4.198542e+01	
72226	5.072716e-03	3.000000e+01	4.198549e+01	
72227	5.072816e-03	3.000000e+01	4.198556e+01	
72228	5.072916e-03	3.000000e+01	4.198562e+01	
72229	5.073016e-03	3.000000e+01	4.198568e+01	
72230	5.073116e-03	3.000000e+01	4.198574e+01	
72231	5.073216e-03	3.000000e+01	4.198580e+01	
72232	5.073316e-03	3.000000e+01	4.198585e+01	
72233	5.073416e-03	3.000000e+01	4.198590e+01	
72234	5.073516e-03	3.000000e+01	4.198595e+01	
72235	5.073616e-03	3.000000e+01	4.198599e+01	
72236	5.073716e-03	3.000000e+01	4.198603e+01	
72237	5.073816e-03	3.000000e+01	4.198607e+01	
72238	5.073916e-03	3.000000e+01	4.198610e+01	
72239	5.074016e-03	3.000000e+01	4.198613e+01	
72240	5.074116e-03	3.000000e+01	4.198616e+01	
72241	5.074216e-03	3.000000e+01	4.198619e+01	
72242	5.074316e-03	3.000000e+01	4.198621e+01	
72243	5.074416e-03	3.000000e+01	4.198623e+01	
72244	5.074516e-03	3.000000e+01	4.198625e+01	
72245	5.074616e-03	3.000000e+01	4.198627e+01	
72246	5.074716e-03	3.000000e+01	4.198628e+01	
72247	5.074816e-03	3.000000e+01	4.198629e+01	
72248	5.074916e-03	3.000000e+01	4.198629e+01	
72249	5.075016e-03	3.000000e+01	4.198630e+01	
72250	5.075116e-03	3.000000e+01	4.198630e+01	
72251	5.075216e-03	3.000000e+01	4.198630e+01	
72252	5.075316e-03	3.000000e+01	4.198629e+01	
72253	5.075416e-03	3.000000e+01	4.198628e+01	
72254	5.075516e-03	3.000000e+01	4.198627e+01	
72255	5.075616e-03	3.000000e+01	4.198626e+01	
72256	5.075716e-03	3.000000e+01	4.198624e+01	
72257	5.075816e-03	3.000000e+01	4.198622e+01	
72258	5.075916e-03	3.000000e+01	4.198620e+01	
72259	5.076016e-03	3.000000e+01	4.198617e+01	
72260	5.076116e-03	3.000000e+01	4.198615e+01	
72261	5.076216e-03	3.000000e+01	4.198612e+01	
72262	5.076316e-03	3.000000e+01	4.198608e+01	
72263	5.076416e-03	3.000000e+01	4.198605e+01	
72264	5.076516e-03	3.000000e+01	4.198601e+01	

Index   time            v(in)           v(out)          
--------------------------------------------------------------------------------
72265	5.076616e-03	3.000000e+01	4.198596e+01	
72266	5.076716e-03	3.000000e+01	4.198592e+01	
72267	5.076816e-03	3.000000e+01	4.198587e+01	
72268	5.076916e-03	3.000000e+01	4.198582e+01	
72269	5.077016e-03	3.000000e+01	4.198577e+01	
72270	5.077116e-03	3.000000e+01	4.198571e+01	
72271	5.077216e-03	3.000000e+01	4.198565e+01	
72272	5.077316e-03	3.000000e+01	4.198559e+01	
72273	5.077416e-03	3.000000e+01	4.198552e+01	
72274	5.077516e-03	3.000000e+01	4.198545e+01	
72275	5.077616e-03	3.000000e+01	4.198538e+01	
72276	5.077716e-03	3.000000e+01	4.198531e+01	
72277	5.077816e-03	3.000000e+01	4.198523e+01	
72278	5.077916e-03	3.000000e+01	4.198515e+01	
72279	5.078016e-03	3.000000e+01	4.198507e+01	
72280	5.078116e-03	3.000000e+01	4.198499e+01	
72281	5.078216e-03	3.000000e+01	4.198490e+01	
72282	5.078316e-03	3.000000e+01	4.198481e+01	
72283	5.078416e-03	3.000000e+01	4.198471e+01	
72284	5.078516e-03	3.000000e+01	4.198462e+01	
72285	5.078616e-03	3.000000e+01	4.198452e+01	
72286	5.078716e-03	3.000000e+01	4.198442e+01	
72287	5.078816e-03	3.000000e+01	4.198431e+01	
72288	5.078916e-03	3.000000e+01	4.198420e+01	
72289	5.079016e-03	3.000000e+01	4.198409e+01	
72290	5.079116e-03	3.000000e+01	4.198398e+01	
72291	5.079216e-03	3.000000e+01	4.198386e+01	
72292	5.079316e-03	3.000000e+01	4.198374e+01	
72293	5.079416e-03	3.000000e+01	4.198362e+01	
72294	5.079516e-03	3.000000e+01	4.198350e+01	
72295	5.079616e-03	3.000000e+01	4.198337e+01	
72296	5.079716e-03	3.000000e+01	4.198324e+01	
72297	5.079816e-03	3.000000e+01	4.198310e+01	
72298	5.079916e-03	3.000000e+01	4.198297e+01	
72299	5.080000e-03	3.000000e+01	4.198285e+01	
72300	5.080000e-03	3.000000e+01	4.198285e+01	
72301	5.080000e-03	3.000000e+01	4.198285e+01	
72302	5.080000e-03	3.000000e+01	4.198285e+01	
72303	5.080000e-03	3.000000e+01	4.198285e+01	
72304	5.080000e-03	3.000000e+01	4.198285e+01	
72305	5.080000e-03	3.000000e+01	4.198285e+01	
72306	5.080000e-03	3.000000e+01	4.198285e+01	
72307	5.080000e-03	3.000000e+01	4.198285e+01	
72308	5.080000e-03	3.000000e+01	4.198282e+01	
72309	5.080000e-03	3.000000e+01	4.198274e+01	
72310	5.080000e-03	3.000000e+01	4.198269e+01	
72311	5.080000e-03	3.000000e+01	4.198269e+01	
72312	5.080000e-03	3.000000e+01	4.198269e+01	
72313	5.080000e-03	3.000000e+01	4.198269e+01	
72314	5.080001e-03	3.000000e+01	4.198269e+01	
72315	5.080001e-03	3.000000e+01	4.198269e+01	
72316	5.080001e-03	3.000000e+01	4.198269e+01	
72317	5.080001e-03	3.000000e+01	4.198269e+01	
72318	5.080001e-03	3.000000e+01	4.198269e+01	
72319	5.080001e-03	3.000000e+01	4.198269e+01	
72320	5.080001e-03	3.000000e+01	4.198269e+01	
72321	5.080001e-03	3.000000e+01	4.198269e+01	
72322	5.080001e-03	3.000000e+01	4.198269e+01	

Index   time            v(in)           v(out)          
--------------------------------------------------------------------------------
72323	5.080001e-03	3.000000e+01	4.198269e+01	
72324	5.080001e-03	3.000000e+01	4.198269e+01	
72325	5.080001e-03	3.000000e+01	4.198269e+01	
72326	5.080001e-03	3.000000e+01	4.198269e+01	
72327	5.080001e-03	3.000000e+01	4.198269e+01	
72328	5.080001e-03	3.000000e+01	4.198269e+01	
72329	5.080002e-03	3.000000e+01	4.198269e+01	
72330	5.080002e-03	3.000000e+01	4.198269e+01	
72331	5.080003e-03	3.000000e+01	4.198268e+01	
72332	5.080005e-03	3.000000e+01	4.198267e+01	
72333	5.080009e-03	3.000000e+01	4.198266e+01	
72334	5.080017e-03	3.000000e+01	4.198263e+01	
72335	5.080033e-03	3.000000e+01	4.198257e+01	
72336	5.080064e-03	3.000000e+01	4.198245e+01	
72337	5.080127e-03	3.000000e+01	4.198221e+01	
72338	5.080227e-03	3.000000e+01	4.198183e+01	
72339	5.080327e-03	3.000000e+01	4.198144e+01	
72340	5.080427e-03	3.000000e+01	4.198106e+01	
72341	5.080527e-03	3.000000e+01	4.198068e+01	
72342	5.080627e-03	3.000000e+01	4.198030e+01	
72343	5.080727e-03	3.000000e+01	4.197992e+01	
72344	5.080827e-03	3.000000e+01	4.197954e+01	
72345	5.080927e-03	3.000000e+01	4.197915e+01	
72346	5.081027e-03	3.000000e+01	4.197877e+01	
72347	5.081127e-03	3.000000e+01	4.197839e+01	
72348	5.081227e-03	3.000000e+01	4.197801e+01	
72349	5.081327e-03	3.000000e+01	4.197763e+01	
72350	5.081427e-03	3.000000e+01	4.197725e+01	
72351	5.081527e-03	3.000000e+01	4.197686e+01	
72352	5.081627e-03	3.000000e+01	4.197648e+01	
72353	5.081727e-03	3.000000e+01	4.197610e+01	
72354	5.081827e-03	3.000000e+01	4.197572e+01	
72355	5.081927e-03	3.000000e+01	4.197534e+01	
72356	5.082027e-03	3.000000e+01	4.197496e+01	
72357	5.082127e-03	3.000000e+01	4.197457e+01	
72358	5.082227e-03	3.000000e+01	4.197419e+01	
72359	5.082327e-03	3.000000e+01	4.197381e+01	
72360	5.082427e-03	3.000000e+01	4.197343e+01	
72361	5.082527e-03	3.000000e+01	4.197305e+01	
72362	5.082627e-03	3.000000e+01	4.197267e+01	
72363	5.082727e-03	3.000000e+01	4.197228e+01	
72364	5.082827e-03	3.000000e+01	4.197190e+01	
72365	5.082927e-03	3.000000e+01	4.197152e+01	
72366	5.083027e-03	3.000000e+01	4.197114e+01	
72367	5.083127e-03	3.000000e+01	4.197076e+01	
72368	5.083227e-03	3.000000e+01	4.197038e+01	
72369	5.083327e-03	3.000000e+01	4.197000e+01	
72370	5.083427e-03	3.000000e+01	4.196961e+01	
72371	5.083527e-03	3.000000e+01	4.196923e+01	
72372	5.083627e-03	3.000000e+01	4.196885e+01	
72373	5.083727e-03	3.000000e+01	4.196847e+01	
72374	5.083827e-03	3.000000e+01	4.196809e+01	
72375	5.083927e-03	3.000000e+01	4.196771e+01	
72376	5.084027e-03	3.000000e+01	4.196732e+01	
72377	5.084127e-03	3.000000e+01	4.196694e+01	
72378	5.084227e-03	3.000000e+01	4.196656e+01	
72379	5.084327e-03	3.000000e+01	4.196618e+01	
72380	5.084427e-03	3.000000e+01	4.196580e+01	

Index   time            v(in)           v(out)          
--------------------------------------------------------------------------------
72381	5.084527e-03	3.000000e+01	4.196542e+01	
72382	5.084627e-03	3.000000e+01	4.196504e+01	
72383	5.084727e-03	3.000000e+01	4.196465e+01	
72384	5.084827e-03	3.000000e+01	4.196427e+01	
72385	5.084927e-03	3.000000e+01	4.196389e+01	
72386	5.085027e-03	3.000000e+01	4.196351e+01	
72387	5.085127e-03	3.000000e+01	4.196313e+01	
72388	5.085227e-03	3.000000e+01	4.196275e+01	
72389	5.085327e-03	3.000000e+01	4.196237e+01	
72390	5.085427e-03	3.000000e+01	4.196198e+01	
72391	5.085527e-03	3.000000e+01	4.196160e+01	
72392	5.085627e-03	3.000000e+01	4.196122e+01	
72393	5.085727e-03	3.000000e+01	4.196084e+01	
72394	5.085827e-03	3.000000e+01	4.196046e+01	
72395	5.085927e-03	3.000000e+01	4.196008e+01	
72396	5.086001e-03	3.000000e+01	4.195980e+01	
72397	5.086001e-03	3.000000e+01	4.195980e+01	
72398	5.086001e-03	3.000000e+01	4.195979e+01	
72399	5.086001e-03	3.000000e+01	4.195979e+01	
72400	5.086001e-03	3.000000e+01	4.195979e+01	
72401	5.086001e-03	3.000000e+01	4.195979e+01	
72402	5.086002e-03	3.000000e+01	4.195979e+01	
72403	5.086002e-03	3.000000e+01	4.195979e+01	
72404	5.086002e-03	3.000000e+01	4.195979e+01	
72405	5.086002e-03	3.000000e+01	4.195979e+01	
72406	5.086002e-03	3.000000e+01	4.195979e+01	
72407	5.086002e-03	3.000000e+01	4.195979e+01	
72408	5.086002e-03	3.000000e+01	4.195979e+01	
72409	5.086002e-03	3.000000e+01	4.195979e+01	
72410	5.086002e-03	3.000000e+01	4.195979e+01	
72411	5.086002e-03	3.000000e+01	4.195979e+01	
72412	5.086002e-03	3.000000e+01	4.195979e+01	
72413	5.086002e-03	3.000000e+01	4.195979e+01	
72414	5.086002e-03	3.000000e+01	4.195979e+01	
72415	5.086002e-03	3.000000e+01	4.195979e+01	
72416	5.086002e-03	3.000000e+01	4.195979e+01	
72417	5.086002e-03	3.000000e+01	4.195980e+01	
72418	5.086002e-03	3.000000e+01	4.195980e+01	
72419	5.086002e-03	3.000000e+01	4.195980e+01	
72420	5.086003e-03	3.000000e+01	4.195980e+01	
72421	5.086003e-03	3.000000e+01	4.195980e+01	
72422	5.086003e-03	3.000000e+01	4.195980e+01	
72423	5.086004e-03	3.000000e+01	4.195980e+01	
72424	5.086005e-03	3.000000e+01	4.195980e+01	
72425	5.086007e-03	3.000000e+01	4.195981e+01	
72426	5.086011e-03	3.000000e+01	4.195982e+01	
72427	5.086020e-03	3.000000e+01	4.195984e+01	
72428	5.086037e-03	3.000000e+01	4.195989e+01	
72429	5.086072e-03	3.000000e+01	4.195998e+01	
72430	5.086117e-03	3.000000e+01	4.196010e+01	
72431	5.086163e-03	3.000000e+01	4.196022e+01	
72432	5.086211e-03	3.000000e+01	4.196035e+01	
72433	5.086272e-03	3.000000e+01	4.196051e+01	
72434	5.086372e-03	3.000000e+01	4.196077e+01	
72435	5.086472e-03	3.000000e+01	4.196102e+01	
72436	5.086572e-03	3.000000e+01	4.196127e+01	
72437	5.086672e-03	3.000000e+01	4.196152e+01	
72438	5.086772e-03	3.000000e+01	4.196177e+01	

Index   time            v(in)           v(out)          
--------------------------------------------------------------------------------
72439	5.086872e-03	3.000000e+01	4.196202e+01	
72440	5.086972e-03	3.000000e+01	4.196226e+01	
72441	5.087072e-03	3.000000e+01	4.196250e+01	
72442	5.087172e-03	3.000000e+01	4.196273e+01	
72443	5.087272e-03	3.000000e+01	4.196296e+01	
72444	5.087372e-03	3.000000e+01	4.196319e+01	
72445	5.087472e-03	3.000000e+01	4.196342e+01	
72446	5.087572e-03	3.000000e+01	4.196364e+01	
72447	5.087672e-03	3.000000e+01	4.196386e+01	
72448	5.087772e-03	3.000000e+01	4.196408e+01	
72449	5.087872e-03	3.000000e+01	4.196430e+01	
72450	5.087972e-03	3.000000e+01	4.196451e+01	
72451	5.088072e-03	3.000000e+01	4.196472e+01	
72452	5.088172e-03	3.000000e+01	4.196493e+01	
72453	5.088272e-03	3.000000e+01	4.196513e+01	
72454	5.088372e-03	3.000000e+01	4.196533e+01	
72455	5.088472e-03	3.000000e+01	4.196553e+01	
72456	5.088572e-03	3.000000e+01	4.196573e+01	
72457	5.088672e-03	3.000000e+01	4.196592e+01	
72458	5.088772e-03	3.000000e+01	4.196611e+01	
72459	5.088872e-03	3.000000e+01	4.196629e+01	
72460	5.088972e-03	3.000000e+01	4.196648e+01	
72461	5.089072e-03	3.000000e+01	4.196666e+01	
72462	5.089172e-03	3.000000e+01	4.196684e+01	
72463	5.089272e-03	3.000000e+01	4.196701e+01	
72464	5.089372e-03	3.000000e+01	4.196718e+01	
72465	5.089472e-03	3.000000e+01	4.196735e+01	
72466	5.089572e-03	3.000000e+01	4.196752e+01	
72467	5.089672e-03	3.000000e+01	4.196768e+01	
72468	5.089772e-03	3.000000e+01	4.196784e+01	
72469	5.089872e-03	3.000000e+01	4.196800e+01	
72470	5.089972e-03	3.000000e+01	4.196816e+01	
72471	5.090072e-03	3.000000e+01	4.196831e+01	
72472	5.090172e-03	3.000000e+01	4.196846e+01	
72473	5.090272e-03	3.000000e+01	4.196860e+01	
72474	5.090372e-03	3.000000e+01	4.196875e+01	
72475	5.090472e-03	3.000000e+01	4.196889e+01	
72476	5.090572e-03	3.000000e+01	4.196903e+01	
72477	5.090672e-03	3.000000e+01	4.196916e+01	
72478	5.090772e-03	3.000000e+01	4.196929e+01	
72479	5.090872e-03	3.000000e+01	4.196942e+01	
72480	5.090972e-03	3.000000e+01	4.196955e+01	
72481	5.091072e-03	3.000000e+01	4.196967e+01	
72482	5.091172e-03	3.000000e+01	4.196979e+01	
72483	5.091272e-03	3.000000e+01	4.196991e+01	
72484	5.091372e-03	3.000000e+01	4.197002e+01	
72485	5.091472e-03	3.000000e+01	4.197014e+01	
72486	5.091572e-03	3.000000e+01	4.197025e+01	
72487	5.091672e-03	3.000000e+01	4.197035e+01	
72488	5.091772e-03	3.000000e+01	4.197046e+01	
72489	5.091872e-03	3.000000e+01	4.197056e+01	
72490	5.091972e-03	3.000000e+01	4.197065e+01	
72491	5.092072e-03	3.000000e+01	4.197075e+01	
72492	5.092172e-03	3.000000e+01	4.197084e+01	
72493	5.092272e-03	3.000000e+01	4.197093e+01	
72494	5.092372e-03	3.000000e+01	4.197101e+01	
72495	5.092472e-03	3.000000e+01	4.197110e+01	
72496	5.092572e-03	3.000000e+01	4.197118e+01	

Index   time            v(in)           v(out)          
--------------------------------------------------------------------------------
72497	5.092672e-03	3.000000e+01	4.197126e+01	
72498	5.092772e-03	3.000000e+01	4.197133e+01	
72499	5.092872e-03	3.000000e+01	4.197140e+01	
72500	5.092972e-03	3.000000e+01	4.197147e+01	
72501	5.093072e-03	3.000000e+01	4.197154e+01	
72502	5.093172e-03	3.000000e+01	4.197160e+01	
72503	5.093272e-03	3.000000e+01	4.197166e+01	
72504	5.093372e-03	3.000000e+01	4.197172e+01	
72505	5.093472e-03	3.000000e+01	4.197177e+01	
72506	5.093572e-03	3.000000e+01	4.197183e+01	
72507	5.093672e-03	3.000000e+01	4.197187e+01	
72508	5.093772e-03	3.000000e+01	4.197192e+01	
72509	5.093872e-03	3.000000e+01	4.197196e+01	
72510	5.093972e-03	3.000000e+01	4.197200e+01	
72511	5.094072e-03	3.000000e+01	4.197204e+01	
72512	5.094172e-03	3.000000e+01	4.197208e+01	
72513	5.094272e-03	3.000000e+01	4.197211e+01	
72514	5.094372e-03	3.000000e+01	4.197214e+01	
72515	5.094472e-03	3.000000e+01	4.197216e+01	
72516	5.094572e-03	3.000000e+01	4.197219e+01	
72517	5.094672e-03	3.000000e+01	4.197221e+01	
72518	5.094772e-03	3.000000e+01	4.197222e+01	
72519	5.094872e-03	3.000000e+01	4.197224e+01	
72520	5.094972e-03	3.000000e+01	4.197225e+01	
72521	5.095072e-03	3.000000e+01	4.197226e+01	
72522	5.095172e-03	3.000000e+01	4.197226e+01	
72523	5.095272e-03	3.000000e+01	4.197227e+01	
72524	5.095372e-03	3.000000e+01	4.197227e+01	
72525	5.095472e-03	3.000000e+01	4.197227e+01	
72526	5.095572e-03	3.000000e+01	4.197226e+01	
72527	5.095672e-03	3.000000e+01	4.197225e+01	
72528	5.095772e-03	3.000000e+01	4.197224e+01	
72529	5.095872e-03	3.000000e+01	4.197223e+01	
72530	5.095972e-03	3.000000e+01	4.197221e+01	
72531	5.096072e-03	3.000000e+01	4.197219e+01	
72532	5.096172e-03	3.000000e+01	4.197217e+01	
72533	5.096272e-03	3.000000e+01	4.197214e+01	
72534	5.096372e-03	3.000000e+01	4.197211e+01	
72535	5.096472e-03	3.000000e+01	4.197208e+01	
72536	5.096572e-03	3.000000e+01	4.197205e+01	
72537	5.096672e-03	3.000000e+01	4.197201e+01	
72538	5.096772e-03	3.000000e+01	4.197197e+01	
72539	5.096872e-03	3.000000e+01	4.197193e+01	
72540	5.096972e-03	3.000000e+01	4.197188e+01	
72541	5.097072e-03	3.000000e+01	4.197184e+01	
72542	5.097172e-03	3.000000e+01	4.197179e+01	
72543	5.097272e-03	3.000000e+01	4.197173e+01	
72544	5.097372e-03	3.000000e+01	4.197167e+01	
72545	5.097472e-03	3.000000e+01	4.197162e+01	
72546	5.097572e-03	3.000000e+01	4.197155e+01	
72547	5.097672e-03	3.000000e+01	4.197149e+01	
72548	5.097772e-03	3.000000e+01	4.197142e+01	
72549	5.097872e-03	3.000000e+01	4.197135e+01	
72550	5.097972e-03	3.000000e+01	4.197127e+01	
72551	5.098072e-03	3.000000e+01	4.197120e+01	
72552	5.098172e-03	3.000000e+01	4.197112e+01	
72553	5.098272e-03	3.000000e+01	4.197104e+01	
72554	5.098372e-03	3.000000e+01	4.197095e+01	

Index   time            v(in)           v(out)          
--------------------------------------------------------------------------------
72555	5.098472e-03	3.000000e+01	4.197086e+01	
72556	5.098572e-03	3.000000e+01	4.197077e+01	
72557	5.098672e-03	3.000000e+01	4.197068e+01	
72558	5.098772e-03	3.000000e+01	4.197058e+01	
72559	5.098872e-03	3.000000e+01	4.197048e+01	
72560	5.098972e-03	3.000000e+01	4.197038e+01	
72561	5.099072e-03	3.000000e+01	4.197027e+01	
72562	5.099172e-03	3.000000e+01	4.197017e+01	
72563	5.099272e-03	3.000000e+01	4.197005e+01	
72564	5.099372e-03	3.000000e+01	4.196994e+01	
72565	5.099472e-03	3.000000e+01	4.196982e+01	
72566	5.099572e-03	3.000000e+01	4.196971e+01	
72567	5.099672e-03	3.000000e+01	4.196958e+01	
72568	5.099772e-03	3.000000e+01	4.196946e+01	
72569	5.099872e-03	3.000000e+01	4.196933e+01	
72570	5.099972e-03	3.000000e+01	4.196920e+01	
72571	5.100000e-03	3.000000e+01	4.196916e+01	
vout_final          =  4.204692e+01
Note: Simulation executed from .control section 
